114
 SCF done       -214.785617054941          0.000584363492
C           4.14983753141448    7.64097863154598   -2.73603866043520
C           3.23086840240528    8.22780011343415   -3.56058571021843
F           3.44969573298238    9.47635160588039   -4.01430129237538
C           2.05610855505012    7.57714882088942   -3.96051138355513
C           1.81766252654469    6.30816058816434   -3.51086839512929
C           2.73219001944650    5.65438916463504   -2.66013242789695
C           3.92026141748114    6.33443354995631   -2.26322081592398
C           4.85060916489610    5.70103520321500   -1.40582482768942
C           4.60079073226363    4.42858688668460   -0.97151752867983
C           3.41949931355489    3.74664277141637   -1.38383105876682
C           2.49980983912133    4.33830489302882   -2.19986942734389
C           3.42208753050470    2.38155097911284   -0.81824023284590
O           2.55980862512577    1.53641377675494   -0.90985978668713
C           4.74971043643309    2.23717291871376   -0.16803446079953
C           5.35073914923339    3.54653862462828   -0.08140809065128
C           6.25744892853567    3.95646070159930    0.86315970674530
C           6.71413476147143    3.11541112820440    1.89787863304027
N           7.05944488375840    2.46656029568240    2.78006664805049
C           6.74296813030311    5.27405206996156    0.96232141572506
N           7.17861372756354    6.33095206800956    1.07090361981400
C           5.22617524870822    0.98853529683567    0.11309238410067
C           6.55246777420855    0.54381551125297    0.26611091110746
C           6.93655407756805   -0.72409676245744    0.69406679125812
C           8.30223191546793   -0.94030607397200    0.65648301975037
C           8.99073407861975    0.17072631680389    0.16445143077884
S           7.95023258375219    1.47699749754147   -0.23038319359911
C          10.39189605910958    0.06960294903305    0.03153881604668
C          10.99476143751185   -1.13417160077052    0.38592441543715
Ge          9.60577411502545   -2.36428111786500    1.06073109387651
C           9.77625103242038   -2.72999135344381    3.00033761390114
C           9.37940685299884   -3.98531141662177   -0.05912522103891
C          12.36825827646873   -1.11360192917251    0.17607451960840
C          12.82820493079184    0.09322875399523   -0.32595982209531
S          11.52720488054600    1.23387402138863   -0.54084265498992
C          14.16169794982624    0.43298804266267   -0.67506178102447
C          15.23698987113291   -0.42689653001883   -0.81117519603125
C          16.39519821394690    0.24345543973106   -1.20496164946999
C          16.20476149809236    1.62753594660544   -1.35271976812526
S          14.59757407537907    2.09973740864605   -1.02366157387158
C          17.42794112914437    2.20942337782435   -1.77085679216164
C          18.38645176114037    1.19218268229696   -1.90811901546796
C          17.77300375385355   -0.07595202517284   -1.54453909645764
C          18.36388702669842   -1.30510098182211   -1.52306245001355
C          17.65925805028029   -2.46606337631527   -1.14219876404035
N          17.08344113975707   -3.40812948654467   -0.83201539552281
C          19.71747292767830   -1.49652593997372   -1.87154425959746
N          20.81818416316694   -1.65780118010062   -2.14927189465650
C          19.62300646020341    1.66523864733714   -2.34903038544726
C          19.61863346823911    3.03544684755290   -2.53039090138181
S          18.05628070543969    3.75088149498082   -2.15432655487326
C          20.68300206507314    3.85710199777490   -2.98080579760123
C          20.75060507929387    5.23917669981123   -2.97335283363947
C          21.93516253975024    5.73670298645588   -3.50366483904867
C          22.77826812552409    4.71903746282680   -3.93983980743660
S          22.12002370724683    3.14789336581254   -3.67059278993455
C          23.99308316115373    5.09116057539244   -4.55622922412293
C          24.30329317755738    6.44863644076669   -4.61495313285684
Ge         22.79903991546513    7.47439646329881   -3.86488504408343
C          21.87659532502577    8.53286927359397   -5.26036138233140
C          23.24123970562882    8.47871145921114   -2.21094568270504
C          25.49949707236286    6.67982019662360   -5.27536444531278
C          26.08294008844149    5.53030745389852   -5.78757334082855
S          25.16148744990842    4.10807317403333   -5.34373676197807
C          27.25718511575901    5.45723531644917   -6.56970922393454
C          27.58684482369340    4.51463192598057   -7.49739794180646
C          29.00230910630695    4.32797820000609   -7.90851123017841
O          29.93258090951556    5.06287359474505   -7.66274749688915
C          29.02887780858889    3.03653944848812   -8.62432526948579
C          30.09950979005791    2.34723625495872   -9.11552400354067
C          29.88563735491146    1.10593865501808   -9.75631510130876
C          28.55923508624827    0.59577674258715   -9.86628460597719
C          28.35425500358655   -0.64471826269404  -10.50088769332718
C          29.42732454194739   -1.32778703668291  -11.00149814092664
C          30.73845571763623   -0.84225102993895  -10.90597348489773
C          30.95564336489862    0.35868503296190  -10.28968872362495
F          29.23323983268461   -2.51157612703653  -11.61183281782605
C          27.46757055097145    1.33412175897839   -9.35265091513658
C          27.69889402377644    2.54026946282150   -8.74991358764335
C          26.78371645816420    3.52863429207080   -8.18621985027542
C          25.45615446235337    3.64539558737399   -8.51218290401163
C          24.66556216942240    4.77229654843328   -8.20702836028481
N          23.99688679812144    5.69024702370078   -8.03377587115789
C          24.75110703911174    2.69531962295498   -9.27707816742324
N          24.12481618773602    1.94756637386487   -9.88301415576540
H           5.04214612728672    8.17331166942258   -2.44576464274448
H           1.36749795609022    8.09006192801653   -4.61305912029499
H           0.91969960251306    5.78610276816682   -3.80556034102303
H           5.74588475058087    6.23305947479725   -1.12444834695184
H           1.60623581348697    3.80894856484864   -2.49504797293140
H           4.47559280686088    0.20316117045022    0.11332525030251
H           6.21873188082753   -1.44907308800573    1.03687131085280
H           9.86607420252260   -1.79820563552500    3.55006523250087
H          10.65482606280104   -3.33813495716053    3.19279786696877
H           8.90039515235077   -3.26270593975870    3.35773231072418
H           9.28442051517503   -3.71394689574468   -1.10590310222048
H           8.48879929344240   -4.52707049511699    0.24396414579438
H          10.23767868741561   -4.64011812037481    0.05545589843335
H          13.02004837494908   -1.94227668690675    0.38774733267208
H          15.16514201728331   -1.48644656860213   -0.65114604522884
H          20.49275123519524    1.05954884246845   -2.52993469540122
H          19.95443304863554    5.85214680966309   -2.58660811251073
H          21.76922487113695    7.93418194856004   -6.15971515609557
H          22.45613562369935    9.41918980814027   -5.49958259962307
H          20.89297007205910    8.84156449187634   -4.91975057551000
H          23.73825532010078    7.83071150133337   -1.49577808364441
H          22.33630889752985    8.87077411190730   -1.75733996005956
H          23.89853343574597    9.31048710341378   -2.44473843666280
H          25.91917976066203    7.65626508015700   -5.44356359964526
H          28.01053338651481    6.21580736464992   -6.37921963463429
H          31.09881089448609    2.74480052267342   -9.01979182203277
H          27.35769227096386   -1.04687401888835  -10.59560240914163
H          31.54574624879297   -1.42530801512271  -11.31999958814568
H          31.95695214905992    0.75325662029848  -10.20387021742630
H          26.47447113656240    0.92275443879035   -9.44145080705005
