82
 SCF done       -186.987553771196          0.000776787596
C           0.39039747300582    3.25793351124134   -2.98111189927136
C          -0.92075584895918    3.63571469481024   -2.89015996680329
F          -1.63806418035198    3.80996416962408   -4.01190705022255
C          -1.55729248580299    3.85277901052791   -1.65937125063963
C          -0.84464173669697    3.68118981171955   -0.50580937032664
C           0.51126759708492    3.29364698186041   -0.54107961247386
C           1.14165185023077    3.08016099747609   -1.80300429020452
C           2.50340499326079    2.70571382109057   -1.86552490620252
C           3.21336484096758    2.55483621134343   -0.70371754526770
C           2.57160430006790    2.74855239392661    0.55467020485770
C           1.25684828578616    3.11104229426882    0.64346820706521
C           3.52996834303759    2.49087032306950    1.63811880740401
O           3.37139091519096    2.59870851361480    2.82872834775748
C           4.77421825860739    1.99418639392394    0.95422886128604
C           4.61702858290400    2.23229254805186   -0.47338340334539
C           5.61472312499085    2.35290324897359   -1.39949784105845
C           6.98886424688839    2.23233494413261   -1.11201034275053
N           8.11809608452544    2.15170078635334   -0.92260632603486
C           5.39339184884780    2.68501061494405   -2.75537179636193
N           5.27350000680377    2.94968604731923   -3.86466356975158
C           5.71397083055205    1.38818470335638    1.70506930891059
C           6.85733196920867    0.59629215542223    1.30220819239227
C           8.04740053731827    0.67280016547782    2.03496450985814
F           8.10791608507247    1.50127890620094    3.08102646570939
C           9.17008184232146   -0.05531560001440    1.67874358567387
F          10.29384539931896    0.10417012736920    2.38633550941096
C           9.15710419543079   -0.93131503087525    0.58918322280684
C           7.95487243117396   -1.04737283339227   -0.11311806565528
C           6.83902559347636   -0.30201220369878    0.23051140451882
F           5.70972392727485   -0.46105841335342   -0.47463810546745
F           7.86373551495721   -1.90735484704267   -1.13445146972365
C          10.35469019839875   -1.67106637997102    0.19420249601914
C          11.19894249107911   -2.29101197516888    1.12319141843898
N          12.30286695571140   -2.90556377217743    0.76471711805528
C          12.59107490656934   -2.95616825206957   -0.53096933149950
N          11.84169382242080   -2.43392078367073   -1.49460557209244
C          10.75236830771496   -1.79026532610404   -1.14380708023119
C          13.84155318038303   -3.62362570166833   -0.91848963771841
C          14.38481451421845   -4.65406094587195   -0.14716959637535
F          13.75345995743160   -5.09527678569388    0.93858547710375
C          15.57719079501886   -5.26622823297112   -0.50351187024770
F          16.06740134138727   -6.22841603712416    0.29231362579461
C          16.29662445702206   -4.88066315105899   -1.63910000834454
C          15.75536819479949   -3.83090343643611   -2.39142410440061
C          14.55231017796699   -3.22853824934031   -2.05626301581857
F          14.11482814480987   -2.22475921473317   -2.81097563133422
F          16.41667632592729   -3.41034387627321   -3.47378857959315
C          17.58162646254119   -5.43317090700826   -2.00977401470972
C          18.08875111227166   -6.67124214080799   -1.84894318644163
C          19.57547567600579   -6.84861753379728   -2.00177675914942
O          20.33830872381170   -6.05444382708632   -2.49275203682763
C          19.87259815665131   -8.14467471163683   -1.37567365723442
C          21.08889054328190   -8.71433922343426   -1.12329279584150
C          21.14083980785394   -9.96830953350402   -0.47707997630897
C          19.92454810238907  -10.60925538887089   -0.09593529443799
C          19.98497188999340  -11.85665688026660    0.55570551835008
C          21.20330066563936  -12.42518457355410    0.80569059192560
C          22.40948394074528  -11.81121567226602    0.43818270391798
C          22.36998955813195  -10.60010816491146   -0.19423706407093
F          21.26316993397040  -13.61522536864232    1.42586286818750
C          18.67969033786946   -9.99869303572033   -0.37311537271890
C          18.65312428205345   -8.78707964506447   -1.01127541653538
C          17.53555997543945   -7.95280671247711   -1.43847837341791
C          16.24959781345875   -8.37828808816946   -1.61733821262045
C          15.24107940748400   -7.58860410221258   -2.20584092008307
N          14.40444456606353   -6.96944484546721   -2.68863389570337
C          15.79999814714539   -9.67795957746315   -1.29513717394441
N          15.38651435430354  -10.71930726711978   -1.05081471162334
H           0.84866832819655    3.10333606385680   -3.94541794981075
H          -2.59391863088350    4.15023676791694   -1.65053079464781
H          -1.31311748981026    3.84236935685453    0.45331307278383
H           2.94993279723078    2.53832749511803   -2.83261145429437
H           0.79383379983303    3.25906431565545    1.60753424363257
H           5.58236296855490    1.49115434312573    2.77910767889878
H          10.97931861512772   -2.30006499811892    2.18215908575650
H          10.18845823544562   -1.34118730855712   -1.94983330452461
H          18.26794562374658   -4.71644549111223   -2.45435070262320
H          21.99966620524567   -8.21155638380895   -1.41214251381897
H          19.07711154482686  -12.35931278932937    0.85050718155669
H          23.34029307051592  -12.30749658774338    0.66275112164578
H          23.28515832473965  -10.10777164783629   -0.48661830570643
H          17.77620455054464  -10.49836826385440   -0.06169570365907
