98
 SCF done       -188.203860291010          0.000720362279
C           3.03923889676205    0.09866786634698    6.58185118922522
C           2.23294029269198    0.69045702096059    7.51378266504981
F           1.78861931003891   -0.03211255995835    8.56030971631529
C           1.84516855073168    2.03378895920267    7.42750222964518
C           2.28885668532362    2.78326713045663    6.37315438657362
C           3.12358467830496    2.22459656037859    5.38442101665314
C           3.50403402678504    0.85552005859916    5.48905156101713
C           4.33369877038649    0.26921871661970    4.50387305686154
C           4.76963599490417    1.03100538720777    3.45479896420444
C           4.40085990234309    2.40375751803906    3.36501351201359
C           3.59534938282117    2.99257045298714    4.29489783825034
C           5.03659916340068    2.99882022781747    2.16998663256547
O           4.91565875954354    4.13036337945588    1.75587195295670
C           5.90863532004424    1.93206541676322    1.61873368629294
C           5.59774262136170    0.70051930180687    2.29576859937748
C           5.80553645326076   -0.57506000411412    1.82029871010157
C           6.36972585992171   -0.85294326444991    0.56445330815902
N           6.78095405134914   -1.13049508525089   -0.47266207063445
C           5.40404215295917   -1.74140374873582    2.49718397553051
N           5.12130382375289   -2.72445870538335    3.01999820455911
C           6.84508278405318    2.24486986668199    0.66508553129871
C           8.01992216233866    1.54557752389559    0.33809439190436
C           8.70706671528975    0.71348169013133    1.18898254573869
C           9.89308865452833    0.06734159164969    0.80552334213212
C          10.26524868252252   -0.06408581731352   -0.51329894461897
C           9.29462780349825    0.51427890994473   -1.52078179031640
C           8.72260729848777    1.83198685274834   -0.97011949230143
N           7.85684530203891    2.48893139659423   -1.91600952718568
C           8.11608959724122    2.33754052021734   -3.13741418457491
C           9.26112031255252    1.51925313562265   -3.59571679484216
N           9.83815858168799    0.69333961961254   -2.84053617185035
F           9.72336518810678    1.71886530235674   -4.82178822905339
F           7.35752106001402    2.92691610437355   -4.05037208388493
C          11.39454614381921   -0.81200056878335   -0.90135646765360
C          11.78536521931402   -1.23998816629344   -2.16502439233934
C          12.94722192049896   -1.99756743372313   -2.13641174497632
C          13.47692313711899   -2.15351265557771   -0.82896656366311
S          12.52512349642379   -1.37406202692394    0.35030123314890
C          14.64047494470970   -2.92884610956049   -0.89962152579232
C          14.86746956270511   -3.28370665402752   -2.25151525644232
C          13.80336798855937   -2.70443068352703   -3.06560032232466
C          13.65180519135075   -2.82172813209683   -4.41767266506224
C          14.56758935341886   -3.54230662090169   -5.21081428386960
N          15.31369199747464   -4.12688876770617   -5.85735888144516
C          12.57077156029789   -2.24202359099734   -5.11442058996069
N          11.69529185684887   -1.78717515014999   -5.69843533610220
C          15.98908113431148   -4.07033639972294   -2.42169509849571
C          16.64513285405700   -4.33562608919855   -1.21071373767316
S          15.83280781280991   -3.57141506853483    0.15154747129067
C          17.79081839767060   -5.12052926948542   -1.06711233469709
C          18.46093195381371   -5.41388458094549    0.10012101454444
C          19.60186675885384   -6.24355657962973    0.21782090170012
C          20.06802994188228   -6.37965789453677    1.49158273963983
C          19.32504019953328   -5.65728295212294    2.44869795977918
S          18.00487105503112   -4.80355900950968    1.67457574297999
C          19.52899854982942   -5.56673644342469    3.81261754814400
C          20.51993702717671   -6.20579126314068    4.59420330186639
C          20.45053328024842   -5.90538012467799    5.91699617533014
C          19.40630341206571   -5.00285215851759    6.27313851766565
S          18.51084904977244   -4.56856331208335    4.82080463420007
C          19.17261982156326   -4.57562806047924    7.54748407508295
C          18.19543968094751   -3.66879456451853    8.06581139087043
C          18.16597352950084   -3.45546297336158    9.47321407481905
O          19.07277923377474   -4.15152516954110   10.21251393750747
C          19.08306304462723   -3.98405978079525   11.60990448958992
C          17.24042234547274   -2.57627970767092   10.00813778912122
C          16.34207608304213   -1.89485655760998    9.19998600820485
C          16.35719206347568   -2.08934684272154    7.82294872879120
C          17.28010893597678   -2.97297163341661    7.27665912626497
O          15.52870223015996   -1.47373822398379    6.93623752716756
C          14.58095601733203   -0.55604684517322    7.42574913486091
H           3.31410675782873   -0.94020321391282    6.67769751733634
H           1.20661150590195    2.44665061914707    8.19230421698236
H           2.00341803394520    3.82078941988904    6.28476832171511
H           4.61033613246054   -0.76777726868353    4.61068639605545
H           3.31918415180242    4.03223888712212    4.20241110465402
H           6.67935185637118    3.17773288029933    0.13729775189037
H           8.36200965246782    0.58868294222980    2.20509753737276
H          10.48948411745596   -0.40755434623881    1.57083425964232
H           8.46712095191870   -0.21773863707567   -1.59750139173416
H           9.55750174786605    2.52873324139716   -0.76658957529216
H          11.22448600626643   -0.99511411378162   -3.04703020895533
H          16.34406570772845   -4.45514824120276   -3.36050472300533
H          18.18662838900168   -5.55137947852891   -1.97759082103703
H          20.03908145076398   -6.71632371905828   -0.64371415064553
H          20.92250412086951   -6.97323596467741    1.76253599843369
H          21.24699830590752   -6.86732767907697    4.15873921027862
H          21.11809359547676   -6.29781481175791    6.66374726203333
H          19.83525674564471   -4.98778987286573    8.29747609429302
H          19.87905969144938   -4.63069698642587   11.97585323506760
H          18.13342786634822   -4.29170803629432   12.05851826427389
H          19.30193608038145   -2.94891990571912   11.88987231664733
H          17.19989914325082   -2.40109139836049   11.07129745039164
H          15.64192545314478   -1.21889001500613    9.66368056887754
H          17.26796366063834   -3.09629023455191    6.20750228123673
H          14.04380389962793   -0.19472104286457    6.55057225243814
H          15.06151519689804    0.28954218767685    7.92853694479015
H          13.87325415442945   -1.03339847208973    8.11111983694334
