108
 SCF done       -196.079354480515          0.000542674697
C          11.24689103138090    5.79156930625498   -7.29098044381113
C          10.76873652815537    6.77884769486922   -8.10635343970985
F          11.07656397386745    6.76260745563047   -9.41673025833899
C           9.96071826212899    7.82073866377466   -7.63138424918259
C           9.63709758395835    7.85342614335608   -6.30352988706333
C          10.10266943637907    6.86071717974208   -5.41729516029560
C          10.92506448915618    5.81056027849160   -5.91973219743304
C          11.41389721922545    4.81001062731724   -5.04798789000091
C          11.08653780543472    4.85808094540396   -3.71960102798949
C          10.25160063303247    5.90221275157842   -3.22579467495423
C           9.77212159051594    6.88374287774464   -4.04369205114624
C          10.02849704450015    5.70902518110789   -1.77743110518786
O           9.40442890531528    6.42110328018607   -1.02426035969463
C          10.68542776281489    4.41594942963705   -1.45181330836026
C          11.47868279725124    4.01246709312223   -2.59621940005306
C          12.56200459626995    3.17237649196278   -2.57320246305816
C          13.11998245818089    2.64182719691762   -1.39009751091705
N          13.68310128850466    2.26366355728977   -0.46413366873453
C          13.29651599181198    2.80395315118267   -3.71596735246853
N          13.89591315612467    2.42985007002254   -4.62170046239282
C          10.41823204882884    3.77458343693086   -0.28548669704344
C          10.66712044791178    2.39462211653403    0.01817925959646
C          10.98728143514830    2.01742222045460    1.33873984342696
O          11.02009157896750    3.01170867920359    2.25617460258649
C          11.45830172682072    2.71778805815735    3.56208502016925
C          11.31396374036096    0.69157375495245    1.59462066559387
C          11.29513256415988   -0.26841242639580    0.59466742015510
C          10.86750230948688    0.08416501593802   -0.70203255392072
C          10.58221641424925    1.40729712978184   -0.97192670185380
O          10.73283026518173   -0.93105308891479   -1.59218633505241
C          10.51174133421500   -0.61358912112948   -2.94332087036853
C          11.76564182927058   -1.62702229931414    0.89089521555418
C          12.78497496080637   -2.20293024955117    0.11503818273354
O          13.27012226949480   -1.45669463304385   -0.91047271827169
C          14.37194836386557   -1.94191487438475   -1.63621739664531
C          13.26733993161398   -3.45372324852408    0.47139122840990
C          12.77911304647465   -4.14508093871315    1.57466468690227
C          11.74172923951786   -3.57548816786161    2.33596241075579
C          11.26585004607368   -2.32010151049817    1.98550684901237
O          11.27880024488907   -4.28962563514467    3.40244581584350
C          10.44205182100757   -3.64944567393624    4.33390587715143
C          13.38264185531241   -5.42141659087817    1.97739984425031
C          14.78732600829433   -5.57107362288525    2.03540226310177
O          15.54175817154221   -4.50195879501292    1.65935906720121
C          16.93174242318673   -4.54598343375460    1.87681795698501
C          15.31453511438819   -6.76402789552764    2.48300254101051
C          14.50862386733081   -7.81624907303582    2.94491863217304
C          13.10650841935144   -7.67054638876367    2.85448577735071
C          12.58100891030663   -6.48755016457794    2.35510225531583
O          12.34827063788505   -8.72954706330475    3.23554273972257
C          10.94604849824445   -8.64047241046892    3.12806750547145
C          15.17187804689797   -8.99350470658019    3.41703671996673
C          14.80337481842457   -9.96591033111285    4.29394162532504
C          15.56905080728702  -11.24378719182593    4.29618074923238
O          16.61856977883685  -11.46071119211547    3.73258580573317
C          14.75791595062941  -12.18750542598960    5.08974042686422
C          14.96510375290806  -13.51599194427903    5.32255190699362
C          14.03405224818760  -14.23202285041466    6.10857496528745
C          12.89782465910224  -13.55191324404537    6.63522125303823
C          11.97106287290531  -14.27204349280754    7.41398247051443
C          12.18257906687972  -15.60151997460881    7.65057848912590
C          13.29443333464106  -16.28756339997943    7.14410202908016
C          14.20268642557247  -15.60421113702393    6.38413345695938
F          11.29804758030460  -16.29065187727580    8.39623373345378
C          12.71320325166699  -12.17230841808008    6.38343408276347
C          13.63292984133962  -11.49819567931257    5.62662027296477
C          13.72667083461532  -10.09153604627497    5.24678943789043
C          13.04743818242705   -9.06357405993425    5.84741055793074
C          13.37384041821380   -7.70401623207469    5.67867429232933
N          13.62354395870298   -6.58534095053133    5.61548887865583
C          11.99190167577902   -9.24063869852118    6.76240720851682
N          11.10042186281860   -9.32120071431985    7.48231274511358
H          11.86991195833883    5.00677853599856   -7.69079313077554
H           9.61304309717966    8.57238792644627   -8.32211990334347
H           9.01641096359350    8.64611952567834   -5.91366481707150
H          12.03166768838635    4.02462144978954   -5.45453519558866
H           9.14944468616844    7.67159034505245   -3.64702408814171
H           9.93038198818867    4.36164342302231    0.48450486756838
H          11.42447212519524    3.66356260418510    4.10038825475117
H          12.48351832971291    2.33713147770829    3.56008998447833
H          10.79880535286119    1.99705963145150    4.05576807525684
H          11.63754019065973    0.38688834696071    2.57692559583258
H          10.25456778326390    1.70877050029919   -1.95479595907871
H          10.53907093482471   -1.56234527187817   -3.47686572796320
H          11.29625210907618    0.04233589648039   -3.33479591261300
H           9.53309043306298   -0.14514751795701   -3.09635617560817
H          14.62853051194715   -1.15204205798095   -2.34100722397326
H          14.12112837185927   -2.85330937455957   -2.18944114636316
H          15.22808899885243   -2.13609701574314   -0.98280189998799
H          14.04811256389407   -3.91883990775712   -0.10517783013747
H          10.47487181382945   -1.85709412447996    2.55434310873501
H           9.45841610896071   -3.42329799398940    3.90735357317081
H          10.89421816880737   -2.72953234318324    4.71617346938703
H          10.32415257758566   -4.35699496619477    5.15346583815878
H          17.30088640443775   -3.55883468454088    1.60223745137862
H          17.41640735880193   -5.29905735905585    1.24650010198464
H          17.16787256635643   -4.74124662885883    2.92700151892969
H          16.38245485105370   -6.89995899414625    2.54626988139741
H          11.51537777153978   -6.36184816973294    2.27561458867163
H          10.56370402490037   -9.58828662313168    3.50549967551218
H          10.63127810521334   -8.51060493413301    2.08861880883910
H          10.55070391670163   -7.82161760782430    3.73628347270717
H          16.14305766665609   -9.17555689958577    2.96167254537515
H          15.83005630744612  -14.01650060567101    4.91351510344967
H          11.10536347040202  -13.77520877640405    7.82348157195115
H          13.40924846950228  -17.33696921403818    7.36452343897435
H          15.06752024745493  -16.11095682756315    5.98290112007745
H          11.84298066071246  -11.68402667938491    6.79266037860088
