100
 SCF done       -199.052426055728          0.000927218267
C          12.71165555923186   -2.79280484791248  -12.49923295395537
C          13.00568694300935   -2.41600663878290  -13.77872262983291
F          13.92304151221541   -3.11139212302117  -14.48021720392471
C          12.37718834926971   -1.33607014757740  -14.41019422550813
C          11.41946036077004   -0.63871851871041  -13.72809372941224
C          11.06363617782492   -0.99212084930113  -12.41055409896015
C          11.73031165985171   -2.08375509814045  -11.78089221638436
C          11.39552504374297   -2.45268573553798  -10.45758949956287
C          10.41873306524914   -1.76010437644544   -9.79570325202244
C           9.75039048513643   -0.67237175115521  -10.43010371725202
C          10.06039907141004   -0.29082530030516  -11.70406932751907
C           8.76511368530688   -0.09102836073805   -9.49682893045811
O           7.96736161462608    0.79334779778977   -9.70553725789978
C           9.01141409144487   -0.78430223127339   -8.20023808037871
C           9.85467614224111   -1.93171495279648   -8.46232976166377
C           9.89049044857207   -3.08589603571157   -7.72386963457214
C           9.10397971094300   -3.28186144811287   -6.56984230103065
N           8.44454942981673   -3.48055266802646   -5.65128787358930
C          10.64750532511323   -4.22019278448539   -8.07624825149110
N          11.26162627833265   -5.16132083319697   -8.31054836050772
C           8.57544400202772   -0.23125068456725   -7.03563654025026
C           9.09845846390139   -0.42363747885119   -5.73376984334858
C           8.50191927943495   -0.07393548976738   -4.53526228811993
C           9.33240846275268   -0.31310921293270   -3.44334210132019
C          10.59037090582097   -0.81582494103329   -3.80450045407145
S          10.74006760297740   -1.01744380610360   -5.50140915205996
C          11.42009394605340   -1.01461077167643   -2.70482880725911
C          10.81052774047489   -0.66900267623287   -1.49351137460920
S           9.17956287718719   -0.09599113409352   -1.71820504430060
C          11.64097597408916   -0.84463705677451   -0.38240739166754
C          12.88438990939490   -1.32499052185972   -0.73744631336336
S          13.02858208509601   -1.57204372086047   -2.47509709559867
C          14.02122150196851   -1.60619869754655    0.07671150305440
C          15.18023348694723   -2.09121832240549   -0.47435432268621
C          16.35988581291098   -2.34487908531417    0.21542805421070
C          16.47214229643993   -2.08636934243260    1.65329236559919
C          15.44827968146757   -1.63112743353003    2.40885103070221
S          13.88058933059354   -1.27171838414698    1.79748250268774
C          17.82187690722734   -2.40111890108671    1.97486915153688
C          18.50705366122191   -2.81364271156193    0.82607542231958
C          19.85084046098644   -3.14525608688833    1.10665791754314
C          20.14576187096710   -2.97514729950155    2.42218877905974
S          18.81631321585456   -2.41159243435329    3.37560728237623
C          17.59673699133762   -2.79043200953061   -0.28773259754125
C          17.79269884836670   -3.11645438828467   -1.64902219835162
C          18.95176139832666   -3.30047269502836   -2.33099685187263
C          18.94566912585307   -3.55446686611526   -3.73019607196348
C          17.87570222689647   -3.94029124671245   -4.51727249179649
C          18.20253114151907   -3.98133590927860   -5.86811115825080
C          19.53141351945221   -3.62909374159127   -6.14590932542679
S          20.39227490753849   -3.28020793165235   -4.68960108565418
C          19.79399459261538   -3.60888380784516   -7.51645651437544
C          18.65905407850102   -3.95149031559649   -8.27445434696505
S          17.27120477940584   -4.32789122082397   -7.29534115532510
C          18.84742353984210   -3.85819596119498   -9.64385918660518
C          20.13009824055966   -3.44554980298628   -9.96944894226012
S          21.12342303011271   -3.21835858034699   -8.53324668421003
C          20.69466967160553   -3.23698951083752  -11.24341753658745
C          20.05171865222097   -3.03930982269439  -12.43181353184978
C          20.78392531064173   -3.29515099396791  -13.70245493590998
O          21.97732101492293   -3.44921960261558  -13.83117652747729
C          19.73968195862384   -3.37430090106078  -14.74246952007362
C          19.85700167443854   -3.71487747806830  -16.05884976872134
C          18.69557209773186   -3.76873638274282  -16.86289839387437
C          17.42842291245818   -3.47469794828657  -16.28062288544348
C          16.27185627407449   -3.54865622524392  -17.08037131342546
C          16.39072612247812   -3.89075693086686  -18.39840735671963
C          17.62717746100834   -4.17732866983285  -18.99250225404692
C          18.75908430305759   -4.11646089605611  -18.22767000374198
F          15.28782035473178   -3.95844253791757  -19.16827236228012
C          17.33806378822453   -3.10992478612788  -14.91705130617533
C          18.47800061142802   -3.05389690498545  -14.16349603499692
C          18.68939894436398   -2.69195484954378  -12.76459835043890
C          17.82770459551340   -1.92859619357008  -12.01673173408858
C          18.15758796703455   -1.37035127839193  -10.76578198532623
N          18.38542793905665   -0.85804870339796   -9.76389299099029
C          16.54403266073635   -1.52995692241427  -12.43751462009697
N          15.48291849328519   -1.17470460259239  -12.69811167817732
H          13.22074569419445   -3.62651567385573  -12.04176688813725
H          12.66032066642549   -1.07658219838554  -15.41796508179664
H          10.91869303949052    0.19639185140217  -14.19436593155950
H          11.92770928400383   -3.26816310860212   -9.99339352739770
H           9.54490277000250    0.53570945443771  -12.16993755355496
H           7.80584553034934    0.52828970066144   -7.13034331028853
H           7.50060239113894    0.31016841339173   -4.47052079251268
H          11.35690055706171   -0.63122760433417    0.63165399393881
H          15.16483962171755   -2.26610377300613   -1.54158713599845
H          15.54013958539888   -1.44937856739388    3.46799446224933
H          20.56568742382759   -3.49752549575580    0.38619353006530
H          21.08405574271266   -3.14937236044790    2.91163941182971
H          16.87971597247033   -3.17325875344894   -2.22529773379850
H          19.91083012199865   -3.17951918390577   -1.85142850537084
H          16.90424768957276   -4.19155236089677   -4.13592663147414
H          18.10005058761694   -4.11193836392357  -10.37318165594591
H          21.77590931315840   -3.30479871069897  -11.31023279829229
H          20.82312738273392   -3.94475362356589  -16.48253853917341
H          15.30570439121353   -3.34017146828747  -16.64978645031043
H          17.65912823373247   -4.44204637981816  -20.03755461423267
H          19.72242299864504   -4.33669740325399  -18.66261988983107
H          16.36619734474827   -2.90139467511143  -14.50123063192218
