128
 SCF done       -219.789876082400          0.000448517949
C          21.54245432177854    4.39639351959817    4.24743444192142
C          22.83535672219283    4.80153299987375    4.06665102021390
F          23.39394069455861    5.64772526292285    4.95101030909583
C          23.61475053847920    4.36856451287102    2.98501845107545
C          23.06429165112277    3.50964898230182    2.07509604075937
C          21.73485206149242    3.06007312142871    2.21216432387575
C          20.95966842457775    3.50990481907239    3.32073187317561
C          19.62795761294811    3.06428986523751    3.48636491608188
C          19.09007041418654    2.19971363974808    2.57109285768351
C          19.86399600579725    1.76828021098745    1.45500605247536
C          21.15389727285482    2.17728345708253    1.27486592336559
C          19.04523849889107    0.88144017475987    0.60632539442896
O          19.38057957090039    0.29181638499158   -0.39504687345378
C          17.68313958383404    0.90902347469495    1.21043056642677
C          17.78454788946131    1.54819586765746    2.50977812514532
C          16.93842764120678    1.37735798926843    3.57255311166403
C          15.82707073297288    0.50772788373634    3.57375868932414
N          14.95117773680597   -0.22699170672870    3.67321971112150
C          17.11907096125157    1.99745073864173    4.82552185443651
N          17.19942721265553    2.50491325755174    5.85220690506785
C          16.62238689877188    0.46759053479313    0.49171425784923
C          15.22260386103204    0.69704380727363    0.72883777742690
C          14.29557111716063   -0.27514373670677    0.33043762425272
C          12.94991144242162   -0.13018143844917    0.59414288783764
C          12.51474243317901    1.02315245265114    1.23183682623295
C          13.42706577647915    2.03692408832602    1.57659664149439
C          14.76653492989119    1.88032620108704    1.33291435006629
C          12.71779564847012    3.19073929093109    2.24827483448907
C          13.23701942817455    3.38656701256059    3.67670435810373
C          12.85712618856974    4.48423161109789    1.44002133485974
C          11.28763367473287    2.70050730279281    2.25332024755412
C          10.17036818366884    3.32049805451189    2.75679525484125
C           8.93061006330701    2.67300194401587    2.68578186127358
C           8.84989808551230    1.41355222548536    2.07880563148933
C           9.96770374624990    0.79125496018194    1.56261779230021
C          11.19413756329404    1.43348269664949    1.65395849341070
C           7.73581891749194    3.29749399237221    3.23602339752538
C           6.71045705163808    2.58006463322564    3.77750264894698
C           5.53839220818658    3.12454120830193    4.32433115253118
C           5.37986293825371    4.58288146249228    4.44425613705198
C           6.26597517177050    5.48237575049716    3.96695009345505
S           7.71577973516047    5.05441848159580    3.15653570197061
C           4.16256865275415    4.77275435083377    5.15234146294753
C           3.60282227179286    3.53237453675631    5.45563828936235
C           2.38525424259208    3.65572011182822    6.16059429973387
C           2.06130631265031    4.95789036155991    6.37333000067399
S           3.20827879395498    6.08380922563707    5.72737460576969
C           4.44426290759205    2.49183341416188    4.92259835553036
C           4.14871513955206    1.10047325821871    5.04168630814705
C           4.58364177652616    0.12840794249214    4.21277229177745
C           4.36268530471654   -1.28972904518902    4.35064919989051
C           3.77934388980968   -1.86626334452873    5.48868710478180
C           3.63003703886131   -3.23114472751041    5.61129853781435
C           4.06907066319603   -4.05278512473015    4.58092111405318
C           4.64424194080806   -3.49286117284247    3.42683387964755
C           4.79120578670026   -2.13402084648048    3.31225182969141
C           5.04638534617540   -4.57558708504871    2.45104707359899
C           4.29543747406022   -4.43551725427341    1.12361333928807
C           6.56101618664189   -4.57320891175986    2.21986974938577
C           4.63069585571069   -5.82238385956850    3.19726822852270
C           4.75604419119149   -7.13278828649263    2.81385007730409
C           4.38862321582391   -8.14774356934812    3.71031603456197
C           3.82515929585432   -7.80517060384796    4.94820701763649
C           3.64594257044856   -6.48868324674293    5.31256368904339
C           4.07248097971896   -5.49059479758904    4.44524341390385
C           4.56887669370629   -9.52375901213691    3.33234153719186
C           4.87683442376531  -10.57320367029492    4.13314498762659
C           4.63594370270514  -11.96662085198530    3.66774645185172
O           4.38684017210287  -12.32100165504583    2.53795646194196
C           4.70809261359402  -12.79902054743533    4.88475614373839
C           4.44765805238644  -14.13111550823587    5.03022151741878
C           4.56093748586895  -14.72066724207370    6.30907174433786
C           4.93729867203065  -13.91082895125675    7.42016099294861
C           5.04369087077041  -14.50408271491724    8.69336612577512
C           4.78838140801057  -15.83941700962400    8.83488258538634
C           4.41839576241689  -16.65275733361691    7.75501390382170
C           4.30850424698464  -16.09290554483272    6.51272333661836
F           4.89126377432898  -16.40855396167414   10.05009221139168
C           5.20546080313132  -12.53415791477436    7.23969250312291
C           5.09995927779780  -11.98772583207263    5.98895909712551
C           5.35157974340834  -10.63415056670218    5.50277675664480
C           6.11888135507059   -9.69447346546443    6.13829162680235
C           6.58018647395094   -8.50792014820438    5.53003928004613
N           7.04732001718147   -7.56477063325548    5.07222935149701
C           6.61779210472504   -9.84895293412536    7.44748896845107
N           7.02867974319092   -9.92283605795194    8.51696918616681
H          20.97339296164106    4.74653859394751    5.09446393275070
H          24.62968716431362    4.72181061388341    2.89474872464663
H          23.64467263514452    3.16211327765248    1.23369821843259
H          19.06268725085982    3.42498169090450    4.33119018618461
H          21.72513191035833    1.83047728771998    0.42681635717532
H          16.87573931102343   -0.09664940423389   -0.40086904067285
H          14.65806118307931   -1.17244341832516   -0.14894396670363
H          12.25053072817753   -0.90281711334910    0.31397859854407
H          15.47090994321384    2.66292396673978    1.57703952911145
H          14.27403715056180    3.71461912728899    3.66286146631081
H          13.17772326314472    2.45133227105010    4.22947503427489
H          12.64476250101226    4.13677178208885    4.19466998152825
H          13.90055045795826    4.78566750424177    1.38536823059904
H          12.28858256128985    5.28332794588766    1.90932719516010
H          12.48332654084550    4.33932889932738    0.42853696120882
H          10.23919290138769    4.29058424241955    3.22711341659270
H           7.88886389804930    0.92989974557604    1.99227083846633
H           9.88609405793121   -0.17815607358328    1.09508357744129
H           6.84368330674980    1.51017077002882    3.84318809830470
H           6.12030444703491    6.54731665136990    4.05843347862586
H           1.77901211805472    2.83290231909997    6.49432753818948
H           1.19983736618634    5.34704598244034    6.88021428190332
H           3.48500297046998    0.84855904080829    5.85867982434123
H           5.13873752953518    0.41476227211430    3.32954629434712
H           3.45281764257505   -1.22974987352168    6.29648110597642
H           3.18639274369502   -3.65444495985899    6.50025621476795
H           5.24028276728710   -1.69970807194542    2.42968234932465
H           4.56187834649434   -3.50024917513113    0.63711358808279
H           3.22093545894109   -4.44345637800717    1.29498173808956
H           4.54765785810020   -5.25747659636119    0.45801280676577
H           6.87445964929839   -3.62862712633839    1.78146445634711
H           6.84080224999848   -5.38054454541646    1.54771958044695
H           7.08301931511500   -4.71397558871643    3.16334379280596
H           5.18466070269076   -7.40067422426324    1.85944348831102
H           3.49436278765966   -8.59433312645715    5.60907347976212
H           3.19500997465370   -6.23990668222864    6.26141910596314
H           4.38848561915773   -9.77063363128716    2.29044545909021
H           4.15946702641221  -14.72935528590864    4.17879592901375
H           5.33022887244143  -13.90898482528348    9.54638100331678
H           4.22926022471238  -17.70039688867614    7.92754255743630
H           4.02517216429074  -16.69903588818021    5.66537929309443
H           5.48084459677510  -11.94279186694034    8.09864161490045
