84
 SCF done       -177.853050009538          0.000510764423
C           3.54473284193169    1.55747464503144    7.32529872194543
C           2.31309948535135    1.85796642123613    7.83728016879660
F           1.94391402518930    1.33826359359330    9.02096209252368
C           1.40609835093146    2.69478224881358    7.17215062030084
C           1.76240574803065    3.23019022660612    5.96590186782668
C           3.01909797598879    2.95134524811476    5.38988793524024
C           3.92957555846027    2.10140672528558    6.08434941683901
C           5.19925357147414    1.81437500672081    5.53154195989124
C           5.54171372292716    2.35415796851867    4.32113142031681
C           4.61922289964991    3.18627531200229    3.62189639443945
C           3.39151677532687    3.48868436983672    4.13780666357107
C           5.20643862030434    3.58872968291008    2.33183673169387
O           4.74986325765769    4.33635698995381    1.50044012798972
C           6.48263936042694    2.81339407934024    2.22807314402136
C           6.76513471571334    2.25213838773418    3.53388060058786
C           7.99528530249056    1.89770480999239    4.01500634992134
C           9.18847474959156    2.02913304317778    3.27629727330203
N          10.18444752147767    2.13256531547173    2.71541411077161
C           8.21655385189493    1.39858618897502    5.31483922368859
N           8.44674166563277    0.96068517339008    6.35034470300182
C           7.05818344841516    2.66836401619500    1.01176426017092
C           8.04530643520245    1.72910212440778    0.56088814280140
C           8.82575053316226    2.02207134445150   -0.54646743937836
C           9.79293032645134    1.14096673535972   -1.02864460169906
F          10.51274884684529    1.55238204919639   -2.08873505097629
C          10.05571983232075   -0.10070912950495   -0.47515817504208
C           9.25027997663961   -0.44256243709528    0.63666791780436
C           8.24282244410393    0.44992396098129    1.14540676353294
N           7.56531836973494   -0.09749537010176    2.15351544435213
S           8.15192653244454   -1.56683912059537    2.44432760385040
N           9.27658245816040   -1.59584478343261    1.30427730728996
C          11.04979326915262   -1.02927356051784   -0.98374501960997
C          11.85299946756517   -1.80236564893404   -0.13380647604408
N          12.69868727309048   -2.69564709374002   -0.58687991305391
C          12.80260627387084   -2.84917822654561   -1.90341162851772
N          12.11036179976065   -2.14230459786066   -2.79844418996653
C          11.25148160851906   -1.25677373927249   -2.35140650480227
C          13.70046865577731   -3.87594138576922   -2.41545730181198
C          13.59874576627251   -4.30272868768125   -3.72440865813972
C          14.40659957589850   -5.32073151676836   -4.22933394108878
F          14.17222434209611   -5.70079810587061   -5.50115769379737
C          15.36860769045033   -5.99503867665527   -3.48903387406058
C          15.48413721606295   -5.56756924096110   -2.14011880262407
C          14.67205056373026   -4.50641249800940   -1.60198787954139
N          14.97414017981622   -4.25360477291197   -0.33137856344430
S          16.14230799965365   -5.24186198546064    0.13491242215151
N          16.33684146952928   -6.05064310533699   -1.23969214113547
C          16.15198754210629   -7.11157103225925   -3.93725491560953
C          16.57554724443137   -7.45628246974578   -5.17526041453939
C          17.01201728797789   -8.86918996642659   -5.41376210129161
O          17.27060316355746   -9.69378731972025   -4.57051826185050
C          16.98896832962365   -9.03564827874445   -6.87750727586309
C          17.15976808772105  -10.17275551147941   -7.61435240781741
C          17.05401352612670  -10.10416335365352   -9.02099242607841
C          16.76760899019935   -8.85188216023498   -9.64011679146693
C          16.65166648849719   -8.79429012015762  -11.04275690613539
C          16.81769757472785   -9.93514102150137  -11.77749948461251
C          17.10158626850133  -11.17491407596099  -11.18780372999032
C          17.21713400376351  -11.24932012970751   -9.82784164891151
F          16.70663552375090   -9.88233213247616  -13.11670487159563
C          16.60419664305167   -7.68852313247589   -8.85285599801620
C          16.71894310528536   -7.77852523984454   -7.49181489550241
C          16.61515317641707   -6.76303769728039   -6.44923396879921
C          16.75411615376734   -5.41513703394174   -6.63438669510362
C          16.84961393345154   -4.49339895603148   -5.57261538802265
N          16.94756139859829   -3.72433959946558   -4.72648744010563
C          16.88646879478762   -4.80631690309909   -7.90019796594062
N          16.99478253276493   -4.26541667990721   -8.90612443720935
H           4.21867011200120    0.91254129253617    7.86717668910843
H           0.44872568307093    2.89678814486176    7.62562367193502
H           1.08065468514652    3.87688989039191    5.43445685139584
H           5.86650471865204    1.16281401046274    6.07324822798254
H           2.71069308671158    4.12760186306858    3.59555239392384
H           6.66788771360218    3.33157154935760    0.24485993716141
H           8.71915428649874    2.97379885721001   -1.04448926672516
H          11.80632000609630   -1.68328689344622    0.93973177174157
H          10.68337141067793   -0.72769216302747   -3.10520869274991
H          12.86856328482625   -3.84621610200803   -4.37380170551406
H          16.40084461798711   -7.81927170168401   -3.15146666917421
H          17.36862287289646  -11.11441141261531   -7.12912305036966
H          16.43675647202815   -7.85661564293708  -11.53092960478656
H          17.22166830394514  -12.04110273764342  -11.81895195826237
H          17.43474822362653  -12.19284724613348   -9.35042423722403
H          16.37674239778460   -6.75597087880266   -9.34452786736221
