88
 SCF done       -179.395637024836          0.000955091330
C          11.40182171163318   -5.53962172623645   -7.55762942165085
C          12.15113007929272   -5.78587143021739   -8.67509605588029
F          11.58422719379525   -6.38824933109619   -9.73186414972712
C          13.50502709793401   -5.43101705268842   -8.76571610426507
C          14.10135396645014   -4.81536997964596   -7.70103561780000
C          13.37559326880420   -4.53615534768395   -6.52408996287826
C          12.00004674777028   -4.90842004168511   -6.45015846691036
C          11.25364312823737   -4.64815473788830   -5.27762758615237
C          11.86431171151982   -4.03414170769554   -4.21741657739336
C          13.23274297404339   -3.64204955158579   -4.30531443622379
C          13.97862476203065   -3.88957085297597   -5.42361150106341
C          13.62490266417569   -2.95613021066218   -3.06709528102588
O          14.70924314811289   -2.54111726634869   -2.73962502720045
C          12.34887760682185   -2.80416940112254   -2.28374265412791
C          11.35538748901620   -3.66979041489736   -2.89937636453344
C          10.27903915370795   -4.24687300570045   -2.28400642419441
C           9.92017782940658   -4.00125908516730   -0.94304931362341
N           9.61031265966346   -3.82418231857227    0.14737781679086
C           9.45518250824443   -5.21557828243257   -2.89999963630231
N           8.77011307855826   -6.01342651233812   -3.35652971864915
C          12.31613969957577   -1.89133738176599   -1.28923197110026
C          11.18355795125607   -1.29772047022859   -0.63030237705674
C           9.94459001973666   -1.17912091443116   -1.17681018327903
C           8.89007750408605   -0.52718439409826   -0.46751415064095
C           7.61265836135599   -0.44868140874038   -0.98895848042350
C           6.56588985436875    0.19253807981593   -0.30599353303815
N           5.72170717064618    0.73257555929271    0.25392479488851
C           7.31386181074398   -1.02352282467054   -2.23593648953843
N           7.11107887976628   -1.50743200878310   -3.25793754103661
C           9.25080737118841    0.01927159922911    0.80716190288387
C          10.51751719191186   -0.11239119480796    1.27021566784353
O          11.48662987455767   -0.75905570138797    0.57668408915021
C          10.98321313810079    0.41007162880727    2.54740845289497
C          12.07405405954686   -0.16427662956156    3.21241121904297
N          12.52543711818961    0.30127180698522    4.35556281193657
C          11.90169585997208    1.35710372836133    4.87643241156580
N          10.86127571477356    1.98071292180524    4.32791470175504
C          10.40976587334214    1.51915642287647    3.18497492148663
C          12.38618016204657    1.85060508258102    6.16159445948799
C          11.81776029099517    2.88316384286579    6.82755423683934
C          12.31981690680329    3.26270038658137    8.11586695229864
C          11.82590890574203    4.35146604422808    8.80962204914824
C          12.32382409413308    4.71417091138133   10.07354198675294
N          12.73903385172552    5.01062837030770   11.10206928413531
C          10.81589518798588    5.17645176413697    8.28348108246267
N           9.99822956451469    5.85942138352866    7.85613548596227
C          13.35648707634552    2.42960373983417    8.64381233193248
C          13.85029114891089    1.39377115163455    7.91080000975937
O          13.43511210722926    1.15006427203094    6.64460005888941
C          14.86869282640385    0.50449460884076    8.40115432947574
C          15.24440666082253   -0.68575416212636    7.88018342643927
C          16.56481842885879   -1.27599009890242    8.28338329879856
O          17.22035558751022   -0.96882326823354    9.24791246632821
C          16.89072466626982   -2.23631861065679    7.21646209882675
C          18.03725865767746   -2.95705610602163    7.03353804708362
C          18.14244054716460   -3.81318871629499    5.91568320861578
C          17.05580159920693   -3.89853205814822    4.99549172108562
C          17.17135335217660   -4.74851994442573    3.87848655865889
C          18.31604091997081   -5.47576408037182    3.70372937738602
C          19.39322164531833   -5.40879376565540    4.59893405439667
C          19.29985693878511   -4.58627939226302    5.68666523726316
F          18.42645070577449   -6.28845342154801    2.63982467781587
C          15.87845452142834   -3.14631211824772    5.21241496889996
C          15.79219731901995   -2.33552302075226    6.31196575297417
C          14.69909008007005   -1.51056688193797    6.81422395773154
C          13.37764997063698   -1.67228929731333    6.50600305446160
C          12.32987608102278   -1.07726161033611    7.24089238319422
N          11.45576026823903   -0.64909117077599    7.84862609234131
C          12.91014495113390   -2.50208620075636    5.46683769897151
N          12.48534675553471   -3.13369222325165    4.60814329119315
H          10.36335282206354   -5.82923424696766   -7.52167463443828
H          14.04482744019551   -5.65078223207256   -9.67308286739729
H          15.14198038638908   -4.53224398489267   -7.74805321229461
H          10.21206536412380   -4.92670109018146   -5.25198608934453
H          15.01551271875022   -3.59192994378454   -5.46787405154913
H          13.28077436962765   -1.50302738764306   -0.97640631596249
H           9.74970055679834   -1.56448013477977   -2.16470876431882
H           8.49867215295059    0.51515804839977    1.39818880712274
H          12.57797206896780   -1.03528160125951    2.81583783378868
H           9.57866552520638    2.06123982981720    2.75413806029282
H          10.98303401745568    3.40180077022147    6.38532329959246
H          13.72722168386954    2.60982721466384    9.64053223174785
H          15.44175348055179    0.86050327484970    9.24880339884714
H          18.85329717268092   -2.87564692975394    7.73571131283536
H          16.36070223448392   -4.82909261425612    3.17131812419669
H          20.27025832597150   -6.00706261923827    4.40976188046322
H          20.11618718008570   -4.51814113969207    6.38960758428282
H          15.07324448801978   -3.22447118556752    4.49944999774568
