116
 SCF done       -210.832491828065          0.000939046947
C           0.49150061845927   -1.31643175155576    4.41857406274756
C          -0.63841986231297   -2.01511074106346    4.74037414333573
F          -1.83695927187533   -1.40420736410448    4.67309299512721
C          -0.60355659309141   -3.35685138051612    5.14203839284918
C           0.60423364117379   -3.99370165754427    5.21482852046249
C           1.80093986484893   -3.32160260852249    4.89360211252450
C           1.74415954673594   -1.95615394875812    4.49054516995409
C           2.93263205621143   -1.25625743610292    4.17513815026247
C           4.13479662436812   -1.90412346223404    4.25738909213305
C           4.18290204466754   -3.27447236919894    4.64076228993250
C           3.05438143531047   -3.97171827811744    4.95864177297870
C           5.58548803174672   -3.73762016700485    4.60611486834379
O           6.01301501529286   -4.82498264557720    4.92064598335916
C           6.36308225131441   -2.59596872558940    4.05813196541518
C           5.50377639201807   -1.43848198209015    4.03547803443648
C           5.88652241709255   -0.11877192254718    4.06407791742351
C           7.22092446302339    0.32400201112107    4.13209045492528
N           8.28264959278736    0.75157630861713    4.22914778841982
C           4.98428256310677    0.96129958760375    4.10929912201757
N           4.30125062307332    1.88519321477169    4.11202875707354
C           7.64649037060901   -2.81286644438943    3.63367320527522
C           8.43318429211995   -2.03230331516450    2.76939688220913
C           8.05157997153719   -1.05588843693065    1.85234242503621
C           9.10694224113218   -0.47927909307458    1.16653165712408
C          10.33732242527181   -1.02563647894165    1.57728260613928
S          10.16901614098721   -2.27125685791890    2.73792179519398
C          11.48223343154474   -0.42540060396426    1.00852412732952
C          11.24721411392088    0.63872785917341    0.12820142952946
Si          9.40035819752626    0.93007987837709   -0.03225164201490
C           8.76337702465769    0.59336502347890   -1.76095984058110
C           8.84544868729456    2.57279245839665    0.66851274798114
C          12.44288726667603    1.18271891364636   -0.33705753988930
C          13.57549223182635    0.56655276787289    0.16625926069052
S          13.15427021807646   -0.74605668856807    1.24612099150557
C          14.94097233532351    0.88670123394914   -0.08342301504143
C          15.97632794149910    0.21253080762986    0.51492106213635
C          17.33090855620677    0.48923219025095    0.33456163669205
C          17.75679764045475    1.66113513080374   -0.44471397671741
C          16.91292345929633    2.44882612924926   -1.14443350155197
S          15.21277674535249    2.21368845625658   -1.21003351113123
C          19.16626915269846    1.73627912318811   -0.27058561770592
C          19.59427452653745    0.69028084915160    0.54742401081727
C          20.99149061926410    0.71123868936282    0.75091404634100
C          21.57484557553667    1.75162727800335    0.10022438130069
S          20.46300308612442    2.74036530306318   -0.78616150371907
C          18.46102722765620   -0.12117262775519    0.90737888122924
C          18.53290666306707   -1.30599710555988    1.68351714890101
C          17.61726531195530   -2.30898784151259    1.64224233338616
C          17.60365254559346   -3.46398451623656    2.46008238521490
C          18.39661094870484   -3.82159351198367    3.54251394298593
C          18.03257885087375   -5.02592667028531    4.13717935497685
C          16.93180465925418   -5.60286363037706    3.48260595204099
S          16.36683313614164   -4.66357909170917    2.16041209811136
C          16.45565599377760   -6.81191205976286    4.02188918542851
C          17.14069593539130   -7.29577943741864    5.15209900083302
Si         18.52091791603377   -6.10637277153983    5.59248690388235
C          20.22721225868019   -6.85746725300262    5.40938906606105
C          18.26262341757913   -5.26743438297314    7.24510410508713
C          16.57884402841249   -8.48013251925354    5.60129625826709
C          15.46631564698442   -8.90115554167811    4.87540369692212
S          15.14585548328505   -7.80413184139539    3.54319408923398
C          14.74175554086557  -10.08609648096281    5.08339487359414
C          13.55021013239850  -10.48085907099357    4.53643818203505
C          13.23587298856722  -11.92528071630965    4.43407462482203
O          13.79499509593813  -12.83860267927344    5.00182309994120
C          12.14595560341546  -12.01157443663449    3.43847741780143
C          11.57472508529146  -13.11841306406133    2.88237955869041
C          10.56263454795787  -12.95652997155371    1.90862968455105
C          10.15987546097428  -11.64266500234783    1.53145011607586
C           9.15697671949050  -11.49039451832591    0.55447472554742
C           8.59275317480912  -12.60130476159013   -0.00759246778938
C           8.97358088473930  -13.90100545562720    0.35039590193225
C           9.94578281115461  -14.06686860247738    1.29752230120448
F           7.63389315532742  -12.45670497863861   -0.94341481838145
C          10.76126766614257  -10.51250566382849    2.13430962229396
C          11.73827905518913  -10.69611108896708    3.07330044192897
C          12.50562016416340   -9.74245323442656    3.87038196872444
C          12.12522409978981   -8.45170811245468    4.14608279237764
C          12.70771828438439   -7.69313282520669    5.18118659470250
N          13.12829882378280   -7.07196753937115    6.05096833814661
C          11.07612434030773   -7.77892175645984    3.49338943472139
N          10.25929808089612   -7.17237086546140    2.95991018990467
H           0.42733043310363   -0.28243013176352    4.11751122626206
H          -1.52785238537887   -3.85687023325024    5.38442441023642
H           0.65691580607529   -5.02760214273330    5.52128255374596
H           2.85839835021805   -0.22512182925327    3.86793038254737
H           3.11572033808827   -5.00752804279381    5.25684356513410
H           8.08353419450325   -3.74837109356561    3.97023798057132
H           7.02042735985435   -0.80702276190799    1.67226989006506
H           9.09115671194623   -0.37166363570406   -2.14311426994290
H           9.10308181133603    1.34852098637226   -2.46674754247045
H           7.67581055887957    0.59764082658962   -1.79413404162341
H           9.12435700041440    2.67918291119793    1.71552333279849
H           7.76396196153588    2.68368244063141    0.61778616147761
H           9.27613194839745    3.41539425302739    0.13111896937199
H          12.49685846254023    2.01272476297984   -1.01942964326098
H          15.69809280386812   -0.56550654840340    1.21197425126566
H          17.25155070560066    3.29068844996376   -1.72738881630788
H          21.53888485270386    0.00121598098684    1.34401176026490
H          22.61471383668281    2.01337032880674    0.07833765998882
H          19.40657401473512   -1.41192247832696    2.31300461548375
H          16.82494565753122   -2.26283224943215    0.90898355298716
H          19.20777044740941   -3.20780515088975    3.89071268266856
H          20.36562234136462   -7.34207703451623    4.44467960246562
H          20.41685262585382   -7.60821527907127    6.17375034275008
H          21.00868059272022   -6.10641597992958    5.50475896135917
H          17.25635335719244   -4.86504001706886    7.34575170260181
H          18.95531373613147   -4.44118008027530    7.39283605069617
H          18.41318890351480   -5.95845857408943    8.07207541919228
H          16.93349244494249   -9.03052626092593    6.45494988299122
H          15.24220268783204  -10.83895118865164    5.68528806208197
H          11.89093872892047  -14.10743790831967    3.17856585273817
H           8.83595270777078  -10.50427075980760    0.25722818294448
H           8.49322370508126  -14.74019930125970   -0.12731724120209
H          10.25673585707476  -15.05861232615952    1.59013521235770
H          10.44319797974001   -9.52783713080703    1.82929857123157
