105
 SCF done       -195.970707126515          0.000526814126
C           9.19408775575504   -8.59971642309684   -0.89774780656934
C           9.19602097927957   -9.84788769600723   -0.33991387457868
F          10.24530732007559  -10.66556676070688   -0.55027884974234
C           8.14099707863461  -10.31870944749872    0.45242219452632
C           7.06848041753764   -9.50084175665904    0.67777117000966
C           7.01541776902621   -8.20350671899487    0.12927278224672
C           8.09784433067982   -7.74410911522619   -0.67570511775742
C           8.06462901269863   -6.44728027078154   -1.24154255761589
C           6.98965953731889   -5.63709041437709   -0.99954123201900
C           5.91681056936697   -6.09707629373902   -0.18245779696667
C           5.91600344906008   -7.34648183895755    0.36509131521455
C           4.91390063337403   -5.02059770636880   -0.04933227594870
O           3.85112240956825   -5.06332484336047    0.53018333586090
C           5.51278133140311   -3.84537407909618   -0.73213864007055
C           6.67385563499604   -4.28550468019673   -1.45600759363498
C           7.25323358524225   -3.65737204117117   -2.53192056684088
C           6.72569973209346   -2.49562508723034   -3.12471234741749
N           6.31130576688254   -1.56347643595154   -3.65279473103725
C           8.40381349619997   -4.12126339991446   -3.19337661231851
N           9.36875135007942   -4.42104422590567   -3.74070247106607
C           4.97410399900953   -2.60348321413171   -0.50557714071900
C           5.55751467910279   -1.34259864466114   -0.65789814168448
C           6.91083008330037   -0.96994736139777   -0.79573162976567
C           7.08646761343034    0.43111895368620   -0.92022052091391
N           8.28726249995080    0.98920020970554   -1.09180801505262
C           9.31957397293876    0.17764087290585   -1.12957402968933
C           9.16139474514098   -1.22887604939651   -0.93191639958984
N           7.98177007521635   -1.78121803565853   -0.76039848709793
C          10.33747038166173   -2.14369234682928   -0.91272047662917
C          10.65729223870781    0.79028712547663   -1.36242902175550
C           5.88017763586122    1.15549064478474   -0.84152833670964
S           4.54827127718956    0.08849436117584   -0.61121048789027
C           5.77584430930192    2.53753881487834   -0.93533669032635
C           4.59836327382469    3.30246772922303   -0.81935702727664
C           4.84258377728188    4.69205271944833   -0.92785759756828
N           3.85379369381581    5.59098912582398   -0.84810323020999
C           2.64033948611527    5.11803242743756   -0.67227456954507
C           2.39418705548152    3.71101787825429   -0.55130750454434
N           3.36219263935291    2.82561783384475   -0.62186480966591
C           1.01555516153121    3.18785876728879   -0.34188648526026
C           1.52700589662575    6.10289844379068   -0.60357872436425
C           6.20125642943060    4.99259197625086   -1.14770001312034
S           7.16483606020649    3.54944128213579   -1.20432069977856
C           6.69964705049050    6.27261333217345   -1.34875601384097
C           8.00978504318643    6.63256330615844   -1.71949435631185
C           8.16852068879258    8.03140217215672   -1.89184649598786
N           9.35690575258301    8.54755499397545   -2.23944350634799
C          10.34276356836889    7.70060460129974   -2.42383004553737
C          10.17079398193656    6.28862326499374   -2.26692596249686
N           9.01670945028911    5.77238122550537   -1.91148491564642
C          11.29460859098044    5.33771033859592   -2.49908157997400
C          11.66205209826122    8.27554799649238   -2.81119855709306
C           6.97961478390236    8.76062001929250   -1.66826253709256
S           5.69222859635566    7.66736377168088   -1.21582872516284
C           6.89719699640117   10.15381637252149   -1.69037688270748
C           5.81112695004069   10.97378880772564   -1.51304570160201
C           6.01916788259517   12.35750212560287   -1.01931744055752
O           7.05712662588346   12.98058438660406   -0.99994542829435
C           4.70264461103657   12.77798179672308   -0.49226649396762
C           4.36982203576664   13.91545138251985    0.18308399831848
C           3.04009244339061   14.08745859122820    0.63169688569947
C           2.07740185302686   13.07009340822336    0.36926880570146
C           0.75767127723144   13.24347768226048    0.82891483600244
C           0.42864051812080   14.38055860291174    1.51269221511430
C           1.35936841033842   15.39336719964867    1.77851291505933
C           2.64530651605886   15.24091012577834    1.33923025710917
F          -0.83280692570436   14.54632658115192    1.95410632883926
C           2.44799805137268   11.90651152830551   -0.34565295101131
C           3.73982479234401   11.76531642384047   -0.77118642951357
C           4.39550534184782   10.71404115991716   -1.54590097058975
C           3.75243258213911    9.81651515118912   -2.36439145791983
C           4.41655762645523    9.08814028257939   -3.37130164574581
N           4.91374542990590    8.53718955229290   -4.24767023031185
C           2.36568787409621    9.58888038018900   -2.34548799543229
N           1.24639285233264    9.32875873683979   -2.33010041843563
H          10.02304053094865   -8.27246719541617   -1.50581544666290
H           8.19754871690822  -11.31292859438157    0.86643811562489
H           6.24304463550485   -9.84090830590585    1.28500580052226
H           8.89779368542148   -6.12372583712522   -1.84552920483896
H           5.08859687987364   -7.67900167202471    0.97393404828770
H           3.97501214761805   -2.61582800491963   -0.07980759459785
H          11.09703534198414   -1.78589839411983   -0.22042264299520
H          10.78228939117517   -2.19744697142878   -1.90621329170003
H          10.01659292040091   -3.13955450803952   -0.61982202955083
H          10.53572287525731    1.86223696132889   -1.48881727621635
H          11.11599950987054    0.36661562373725   -2.25441644593112
H          11.32000952889060    0.59877453369222   -0.51965255987477
H           0.36892101717345    3.48459162151446   -1.16612183853174
H           0.59080634891875    3.58883231111471    0.57710796440400
H           1.05048476336284    2.10398688974800   -0.28196857855321
H           1.92135505777672    7.10817063571703   -0.71790169048057
H           1.00401588775600    6.02401310056710    0.34827509619903
H           0.80579136322118    5.91634243729571   -1.39763932959679
H          11.67177494291044    5.43576615444511   -3.51573385639624
H          10.93778581400371    4.32376323548110   -2.34349174519592
H          12.11647312862342    5.54243730762951   -1.81446807764824
H          11.58095234325978    9.35754102353182   -2.85611013404919
H          11.96812571011098    7.89703697227742   -3.78538874449770
H          12.42720343004560    7.99837178921207   -2.08772777785761
H           7.85837426675301   10.65576950316399   -1.75430179922229
H           5.11083520975068   14.67692475777637    0.37496632045067
H           0.01354986339011   12.48586795780177    0.63858580131809
H           1.04225312445785   16.26876992842654    2.32269987801953
H           3.38056035897408   16.00762660952428    1.53215415250800
H           1.70164882017189   11.14956051159572   -0.52899489308732
