96
 SCF done       -209.300444019453          0.000417724826
C           4.86446963654262    7.08912468898746   -1.97982376241071
C           3.87965749456569    7.98237944846851   -2.29825489708563
F           4.19298158458861    9.09730299164206   -2.98235566227673
C           2.53952593124474    7.78399702845538   -1.93851825854341
C           2.20137692124567    6.65600566654860   -1.24421926878157
C           3.17641250727920    5.70069059061239   -0.89049874283416
C           4.53474314652182    5.92255733646203   -1.26283002665915
C           5.53258763301625    4.98459334645124   -0.90866832312325
C           5.17922262631863    3.86200437719639   -0.21083726105709
C           3.81661341265295    3.63503553891834    0.14140638316372
C           2.83548203715406    4.52834636352625   -0.17973460677506
C           3.70051547705254    2.34206675536524    0.84227872232363
O           2.71401025502011    1.84271317281540    1.33128142694744
C           5.05969416495522    1.73468277636896    0.75801234298526
C           5.98020911120757    2.76484358744621    0.32391311639196
C           7.31517934303390    2.83113401193017    0.62234909454158
C           7.96818761191578    1.88250724405384    1.43705636625528
N           8.51268830148669    1.16183465599040    2.14506598551912
C           8.15108709825072    3.89741587252970    0.23539337861274
N           8.86998788561806    4.73519263719616   -0.07862350681567
C           5.19769771868448    0.39466738081832    0.94423726827363
C           6.22852517337827   -0.47710807558882    0.52260653052469
C           6.37818050472469   -1.79470457956672    0.91204736329513
C           7.43882844172738   -2.43724738413690    0.27915070323138
Cl          7.85921302525676   -4.06722691142024    0.59554758607137
C           8.12431830878471   -1.64268340784163   -0.63483829998825
S           7.41163619499289   -0.06260408343555   -0.68869943066166
C           9.24386819249878   -1.98220951342042   -1.43105440933435
C           9.98701078031114   -1.15772922805543   -2.26665319165661
Cl          9.63682967885587    0.50310076911892   -2.49585851432790
C          11.05547217694368   -1.79479918261673   -2.90122606860536
C          11.15064767913397   -3.12901992955989   -2.57574303112427
S           9.90533268814947   -3.59392207390247   -1.45637902558395
C          12.10576415756175   -4.07164605126884   -3.03730467034870
C          12.15343677519479   -5.42154237819313   -2.77641964678024
C          13.23436613184307   -6.05412340552677   -3.39569243593465
Cl         13.52647971100570   -7.73540299639058   -3.24354865654796
C          14.04550590626777   -5.20783107161458   -4.13793637303700
S          13.42547163724590   -3.58258342238310   -4.05979403301767
C          15.21971238184494   -5.52874965720565   -4.86586947881836
C          16.06009122871966   -4.67443088855444   -5.56442457259372
Cl         15.79000269224529   -2.98735319929721   -5.68635662801996
C          17.15566091809153   -5.30416131377052   -6.16276382644157
C          17.17493690969209   -6.66082904692244   -5.94232283918126
S          15.81886098389860   -7.16061701097849   -4.97574597631992
C          18.13651979413473   -7.60570223188799   -6.39353092084291
C          18.11942667812777   -8.97052860733215   -6.23087005754163
C          19.23421553839819   -9.60450658290388   -6.79822714519584
Cl         19.50787058244981  -11.28612307852446   -6.63039958913644
C          20.11829738374004   -8.73738831805664   -7.40957699271774
S          19.55700532766303   -7.09575163679338   -7.25557958468297
C          21.35789998916664   -8.99345289414007   -8.07272129217072
C          21.70828778914372   -9.98805213668211   -8.96803003489551
Cl         20.61121840151197  -11.15474665171288   -9.57257319894848
C          23.03463743874790   -9.90854357236809   -9.40670599668691
C          23.71747570835500   -8.82467868826222   -8.89686850326562
S          22.69618799652930   -7.92251197457539   -7.80941894754799
C          25.08659328518875   -8.52364158788605   -9.11380630326054
C          25.76879042372783   -7.37701342498857   -8.86343836987989
C          27.25245206100146   -7.42604784371874   -8.70706691099706
O          27.98520376987128   -8.32546526326139   -9.04497891117879
C          27.60082538125853   -6.18197943041615   -7.99497908532701
C          28.80724472658562   -5.79197550268371   -7.48816323431947
C          28.90280535405266   -4.55713577852181   -6.80871393165168
C          27.73795340024206   -3.74811170053461   -6.66035041016679
C          27.84003672463183   -2.52298146169887   -5.97304837015620
C          29.05013558262282   -2.13478654356386   -5.46898599216865
C          30.20714589105162   -2.91410178455282   -5.60733718875243
C          30.12568495026632   -4.10729659461321   -6.26935868735804
F          29.14955381827964   -0.96505059467116   -4.81338045020014
C          26.50274888261869   -4.17237258248490   -7.20305003803887
C          26.43781462475136   -5.36751275006477   -7.86630031559566
C          25.33478161321866   -6.02881348441928   -8.55557525853047
C          24.22828687844064   -5.40515955655748   -9.06566672534471
C          23.35750219882645   -6.02034284032001   -9.99002327571555
N          22.66628022108068   -6.47273884032744  -10.78642794671602
C          23.89887450455337   -4.05964318398016   -8.80554729205532
N          23.58304800531991   -2.97455629923904   -8.60606984928589
H           5.88649858344730    7.27680126445894   -2.26967854783091
H           1.80608713727553    8.52400427397718   -2.21692286477971
H           1.17580217945972    6.48072783311040   -0.95607558309081
H           6.55203786965265    5.17156478580362   -1.20750538474361
H           1.81061242833433    4.34310031215912    0.10498953119169
H           4.34395199984958   -0.09308402318865    1.40592300005688
H           5.75598265448150   -2.26719116551171    1.64978126404192
H          11.73039116079183   -1.29915375594561   -3.57458745235935
H          11.43407049359983   -5.93349717724630   -2.16397876019270
H          17.90169889129528   -4.78447784789440   -6.73568883991901
H          17.33635855872980   -9.49494656622548   -5.71440198104251
H          23.46499162105733  -10.59927186925666  -10.10849756965461
H          25.69449908450492   -9.35966139472678   -9.44715705214488
H          29.67907018400346   -6.41827906254372   -7.60377667942773
H          26.97099173358619   -1.89556362237897   -5.85114001083708
H          31.13433060735820   -2.55586844925921   -5.18905728334835
H          31.00299525721652   -4.72508999204460   -6.38828428920148
H          25.63378245330505   -3.54685155091469   -7.07194152977344
