84
 SCF done       -156.031914775005          0.000374307028
C           1.97796513834906    6.65053634925940    3.35297787934020
C           1.55784131182944    7.90942373658682    3.68164472024158
F           0.61299189054963    8.06627199708010    4.62641738490290
C           2.07618882128292    9.05866166343792    3.06958673739911
C           3.03865037724313    8.91902565942270    2.10869805162017
C           3.50994324891336    7.64469363027731    1.73222854925498
C           2.96727962148998    6.48793026775929    2.36399685268816
C           3.41726482537835    5.19786308927882    1.99631302861033
C           4.38211296199816    5.07346311937191    1.03428261127417
C           4.93481266807147    6.23433936194975    0.42067314078100
C           4.51186603347563    7.48989028839330    0.74797129100975
C           5.98202792571038    5.82655839490048   -0.53472178504804
O           6.63124291261422    6.52981566194071   -1.27458145300180
C           6.12239338007383    4.35397538152755   -0.35691105750716
C           5.01082246038056    3.89439166510097    0.44139354714363
C           4.47625357539813    2.63072735345973    0.44765317444633
C           4.96215222040324    1.57839086526439   -0.35244440111311
N           5.31116363159125    0.70384673777472   -1.00919759638477
C           3.33627466910161    2.26455878434547    1.19036189897778
N           2.42850935075396    1.90894108885013    1.79670239784709
C           7.23870138761194    3.74638574323811   -0.85379007342776
C           7.82973716148562    2.51246458156796   -0.51599700290871
C           7.64303506493083    1.68692194932752    0.58124918613166
C           8.47813511055657    0.57326400122022    0.61953242439760
C           8.43240705192846   -0.44369934298388    1.70605383914685
C           9.34311391161082    0.52517108980744   -0.47303356966336
S           9.10732511128724    1.88792365241457   -1.52231779464210
C          10.34468432898675   -0.42504042708863   -0.79502413743211
C          11.21809548876815   -0.36281226198916   -1.86472892517970
C          12.13598906860778   -1.41178494711325   -1.93128291838116
C          13.17232062129717   -1.52249144435663   -2.99409928481542
C          11.97080237144414   -2.31912208509688   -0.88984752243544
S          10.65997812564604   -1.84391089489776    0.15672243046493
C          12.70533600916007   -3.48764979927664   -0.57478482598620
C          12.47519962188140   -4.34305862572880    0.48981587831686
C          13.36109020264432   -5.41342277679539    0.56972282001953
C          13.32930991802869   -6.44411579086795    1.64305813926184
C          14.32893872594809   -5.38059284130719   -0.43387895672300
S          14.07291337047639   -4.02051824241756   -1.49867791939516
C          15.34076934442157   -6.33577817362170   -0.65759309362675
C          16.48688951430751   -6.21558225240265   -1.38798973090632
C          17.16188034141501   -7.42960665015617   -1.91390616239833
O          16.94612226497215   -8.57717481111083   -1.59346225129675
C          18.09752436571301   -6.93398563517111   -2.94407501758953
C          18.88304733258947   -7.64290661869590   -3.80587863099043
C          19.69392146034814   -6.94745292505994   -4.73127650190877
C          19.66974883132567   -5.52237564061481   -4.74923831416736
C          20.47707982260143   -4.83662098240563   -5.67735074014036
C          21.26746065285241   -5.54955763630175   -6.53515054769994
C          21.30697426975275   -6.95037164713528   -6.53207687359265
C          20.52751039418088   -7.63193287669616   -5.63921178871932
F          22.04121575646524   -4.89574582648562   -7.42111038491955
C          18.85097896131916   -4.81292704606364   -3.83971452529990
C          18.08239683101841   -5.50884149147442   -2.94742911693719
C          17.19711051030387   -5.05741446195190   -1.87814028550364
C          17.25161070375953   -3.82899333895887   -1.26908670477557
C          16.62229902287799   -3.55807272979637   -0.03737865198507
N          16.16670069179714   -3.32639649842548    0.99098751737622
C          18.00790511168336   -2.74433313752404   -1.75138544059616
N          18.57994795196626   -1.82022561549408   -2.12220123408938
H           1.55330913270107    5.78806456491701    3.84254270873002
H           1.70569435125456   10.02598902492204    3.36966386317639
H           3.45395319368991    9.78934022617060    1.62327887541003
H           2.99388733680549    4.34024626046730    2.49506241911809
H           4.93776004020255    8.35570625882094    0.26356761658837
H           7.79798049648163    4.35401246613272   -1.55970140335673
H           6.94496790938928    1.91375622796158    1.36765955991168
H           7.68499038175748   -0.16635628743476    2.44424603789779
H           9.40051507548512   -0.53140237908023    2.19855029824346
H           8.17434124543627   -1.42133883646217    1.30006712956815
H          11.18820116874683    0.44239643054355   -2.57794558337610
H          13.07898736734500   -0.69529241750220   -3.69230868414585
H          13.06863888048417   -2.45931921933032   -3.54099167428921
H          14.17173153639978   -1.50195613343499   -2.55846643102383
H          11.67375118951216   -4.17905123391029    1.18883991477900
H          14.19708267665134   -6.33290207291122    2.29233690320678
H          13.35514624074964   -7.44699717620672    1.21899538704674
H          12.42972471325396   -6.33587501238563    2.24248801296764
H          15.14879553366529   -7.33016814061731   -0.26489349719060
H          18.88880289449766   -8.72234945027658   -3.78184664951456
H          20.47466821368051   -3.75815394724495   -5.70508682940747
H          21.95028058278157   -7.45903934490105   -7.23240499721329
H          20.54112737066045   -8.71128064282067   -5.61787084299629
H          18.84561865587187   -3.73483980355796   -3.87637041361394
