117
 SCF done       -237.541165019260          0.000254765697
C           3.10233997454669    2.23373301993492   -6.08935351876270
C           1.93580504875879    2.19706153020488   -6.80136972119058
F           1.81022837991241    2.95256900043015   -7.90727785342507
C           0.84938397728106    1.39582006028273   -6.42391143043522
C           0.95739594761583    0.62054588561509   -5.30311157850104
C           2.13750729436587    0.61931176495519   -4.53136026676321
C           3.23034714781706    1.44367186287619   -4.93034671792524
C           4.42042440439877    1.46813557688212   -4.16633417612425
C           4.51179410287910    0.69184558790921   -3.04283305946521
C           3.42469354367885   -0.14731296205649   -2.66135849120321
C           2.26243653872262   -0.18503045320334   -3.37657847614621
C           3.79904893827949   -0.91179536027068   -1.45740414389352
O           3.11608533029173   -1.67385944834133   -0.81437128095044
C           5.23957678798647   -0.59090289548533   -1.22492340009573
C           5.58360768910311    0.53627827464510   -2.06550331688545
C           6.59282187320319    1.43708708146185   -1.85033400550402
C           7.49528313874689    1.36141152902404   -0.77260546384995
N           8.25116244325479    1.34469391383259    0.09199259845329
C           6.81855822930095    2.57213003224468   -2.65605251980702
N           7.05772559244103    3.50257477062281   -3.28395007438883
C           5.96555807084392   -1.38669775533385   -0.39920794888217
C           7.37913739407736   -1.52830050550013   -0.27462088824367
C           8.30402423550014   -1.30373476095585   -1.31434718962933
C           9.71607912343187   -1.44599012428094   -1.11301653341941
N          10.55842084858130   -1.19359459946960   -2.13238702838294
C          10.08729810171199   -0.83611319513466   -3.28277869951762
C           8.68660511932170   -0.74851370181484   -3.49501824487162
N           7.84257027126833   -0.98082723367605   -2.54439347432193
F           8.19224072682452   -0.43926300525864   -4.69151592980018
F          10.94907071206385   -0.58275698330675   -4.26077096707735
C          10.28026460884785   -1.82635389597596    0.12692627967535
C           9.35332039091923   -2.10875490677677    1.15610968170409
C           7.93028509256233   -1.97895630434248    0.94317388652748
N           7.23378133735486   -2.28511829123214    2.03847380755981
S           8.24956620682807   -2.69439247190133    3.20596808373809
N           9.62331999505953   -2.50788134285592    2.40134076813390
C          11.68913375486409   -1.89891497920091    0.30673312332468
C          12.34739468930012   -2.22015335081180    1.47326225451273
C          13.74810028978194   -2.20587863138578    1.35894399909944
C          14.70083552807141   -2.49585746140894    2.36640422435904
C          14.32566201401070   -2.94183000139664    3.68849242022546
C          14.93185569277696   -2.64184337679302    4.87781246136724
C          14.33906063691557   -3.29887762420884    5.97466993095714
C          13.29362944158168   -4.11585584793222    5.64695343564530
S          13.01387192927171   -4.06432356116836    3.94159601740055
C          12.45205871139323   -4.94946153749294    6.54121967268425
Cl         14.90097974037009   -3.08544710176713    7.58724887230238
C          16.03514222523047   -2.34402770671646    2.00584563054581
C          16.45096585374686   -1.96962964810954    0.70412082460496
C          15.50214459136255   -1.72291721056637   -0.31196928180487
C          14.16396241417229   -1.82558551397131    0.05519794222520
S          12.79675071223105   -1.54834067892404   -0.99290798878099
C          15.88967821013621   -1.39030017529921   -1.66653646267280
C          15.26458216001234   -0.53924869329115   -2.53573619281587
C          15.89313381772259   -0.48253778996554   -3.79602762092413
C          16.98854943282492   -1.29041397316709   -3.91787582115762
S          17.26363979491253   -2.13889714592724   -2.44079721527530
C          17.86987492631087   -1.47199932455194   -5.09933023633944
Cl         15.33071452835061    0.51697504153624   -5.07612797727829
C          17.85894862094369   -1.87968434850367    0.60873470865322
C          18.51440338537250   -2.19576150557011    1.75877622446696
S          17.41075918242693   -2.62677921890716    3.04247336016155
C          19.93229386631391   -2.21918964423721    1.98367390674132
C          20.59236405365882   -2.75127321168806    3.06272245010559
O          21.91717765661701   -2.64233091555441    2.91674475875463
C          22.14207913296297   -2.05008968350519    1.73661715804481
C          20.96909228550577   -1.75639018075708    1.10209515722660
C          20.81145870806440   -1.01726669272275   -0.17306668311435
O          20.16233419832734    0.00769605203850   -0.25759908758738
C          21.48241182460629   -1.59926806612764   -1.32148179675746
C          22.20877214961561   -2.76407152269938   -1.44248611553635
C          22.68906444174289   -2.97434101177222   -2.73403989574910
C          22.32876096471391   -1.97331810045656   -3.61667421985339
S          21.35950198638828   -0.76685256158505   -2.83902504704345
C          22.60651050494373   -1.89253444027657   -5.01955858013375
C          21.78193136986926   -1.36446745907804   -5.96419882706537
C          22.33964001868787   -1.64096267266733   -7.27314768670877
C          21.76184098706635   -1.22769834093924   -8.48148537228583
N          21.27755979153730   -0.89474070769598   -9.46717437527924
C          23.49127201367146   -2.36430123065484   -7.12741091335872
C          23.76043479896202   -2.49673522516365   -5.72020952537761
C          24.95247545645932   -2.88768578415983   -5.17284407493914
C          26.03622530653808   -3.63563042701611   -5.84212808977855
C          27.10275384289462   -3.64623357891527   -5.00422760437374
C          26.75893416680648   -2.90758454300728   -3.79571936306946
C          25.46260598584589   -2.49284439280253   -3.88090884948361
C          27.63962360183043   -2.68284759178052   -2.73020861502771
N          28.36349905153620   -2.51155233015051   -1.85570837379166
C          25.91340804284489   -4.34911057544545   -7.09512486650821
C          26.93536091276494   -4.62322169324596   -7.89981070438657
H           3.91737163473589    2.86444221889868   -6.40813037017468
H          -0.04583350897889    1.40801225277709   -7.02521649041017
H           0.13437669272517   -0.00551379480082   -4.99274459769834
H           5.23678106071655    2.09036479598304   -4.49709392843221
H           1.44775217304863   -0.82244517792178   -3.06691331430605
H           5.38493447048772   -2.04314808046144    0.24239718344156
H          11.80829727073576   -2.44029691351663    2.37501979508055
H          15.74382383478536   -1.94717242647924    4.98317119650035
H          12.39927925528538   -5.97339432921071    6.17468246094377
H          11.43611725714615   -4.55697528587412    6.58752690327007
H          12.87268075918473   -4.95037457532067    7.54367118089913
H          14.41005751936933    0.05978041765341   -2.28404503680089
H          18.15245859664086   -0.50001787085605   -5.50255421523049
H          17.34633828785607   -2.01684464823310   -5.88592540507557
H          18.76260007265865   -2.02849677602787   -4.82454595137007
H          18.36594067533062   -1.56632235778072   -0.28102702461206
H          20.21844321410221   -3.21761845364961    3.95265804191285
H          23.16061089597512   -1.85353707529255    1.46488674727857
H          22.37904162220633   -3.43936810444203   -0.62385250332676
H          23.25941206847283   -3.83766424095945   -3.02735122959430
H          20.85234597380590   -0.85456730993016   -5.79578942767155
H          24.15423937487740   -2.65917130952519   -7.91709173629694
H          28.04667760827280   -4.13407192536508   -5.15700460400418
H          24.94712618867095   -1.87609575125069   -3.17152831412827
H          24.91798583449652   -4.68705702297399   -7.35244800550907
H          27.93432908126877   -4.28424587377682   -7.68403346480815
H          26.80254406189743   -5.18038216135503   -8.81061766176850
