126
 SCF done       -241.296672047021          0.000615737142
C          12.16301138275329    9.15922753270664    2.90528539397409
C          11.76291313785761   10.30117725869282    3.54107433650619
F          11.98415192967211   10.43651241360646    4.86222998793795
C          11.12376436647031   11.35145737788013    2.86861100715394
C          10.88928452795738   11.23161230763975    1.52705326979991
C          11.27972633983341   10.07527559114049    0.82110712569818
C          11.93195373515088    9.01980115472339    1.52288223459793
C          12.34518570959120    7.85560566265062    0.83411740492953
C          12.10774129423786    7.75214639596461   -0.50924865055219
C          11.43729253590215    8.80153071588643   -1.20274436137241
C          11.03604960864660    9.93918167972802   -0.56420995315433
C          11.27270929517100    8.42398360858114   -2.62134850250307
O          10.79557140952162    9.08375022503347   -3.51637757403820
C          11.76326381269258    7.02205079680053   -2.70661954923715
C          12.45531175999069    6.71347565922446   -1.47358970088197
C          13.46339061500925    5.79737513205054   -1.32684932693522
C          14.16305779752120    5.59062570320075   -0.12203495236620
N          14.74985641983791    5.37763856943549    0.84161385061840
C          13.98718241198314    5.04437246536549   -2.39915220127076
N          14.49183220872836    4.47209258827322   -3.25710655056033
C          11.44039040076017    6.24707539377004   -3.77607351826419
C          11.44396834298864    4.83261657048622   -3.87655519894191
C          11.47309839672595    4.11459970949007   -5.04576942454686
C          11.44826980554134    2.71971372670281   -4.85249031125627
C          11.35006163097424    2.37525848169308   -3.48963034659916
S          11.30609976060638    3.77971062038864   -2.47135759683157
C          11.30685971095378    1.07004847462862   -3.02591004925003
O          11.18715159095077    0.94393265071921   -1.67527089201453
C          11.69795574979886   -0.18232876288999   -0.99888557192633
C          11.35579082623931    0.05498953241748   -4.00074817448087
C          11.48971293505261    0.40090245078830   -5.38332711425080
C          11.53597517441208    1.71043635219449   -5.83772511134612
O          11.65023497559237    2.17540437006445   -7.10187419068647
C          11.79531611581942    1.29927348772524   -8.19507476903989
S          11.55172287373606   -1.04819087969864   -6.37151074607479
C          11.36571411847040   -2.07260155584473   -4.97793348606975
C          11.27687314110842   -1.35088696907006   -3.82323871086326
C          11.31517425429110   -3.49134225220744   -5.13832033588862
C          11.01784718991189   -4.43556194536683   -4.19657504256976
C          11.04359618057164   -5.75681033979529   -4.70379958121272
C          11.38218076850142   -5.79245760811696   -6.06718983413745
S          11.65459983251931   -4.20181085289966   -6.70589146952220
C          11.48411346216395   -6.96133949500764   -6.81176649054005
O          11.83247977090398   -6.75232216703144   -8.11092273426922
C          12.25862989172871   -7.79101534997705   -8.95616295688904
C          11.19500842703584   -8.16036507592833   -6.13779798866830
C          10.84793603797360   -8.12616496540783   -4.74642680892456
C          10.77598422634440   -6.95520270459223   -4.00876850623033
O          10.47754454508631   -6.78106717117235   -2.69511923224977
C          10.19258534164899   -7.87790312094285   -1.86007306520490
S          10.51178190022885   -9.74752333769398   -4.15927365156474
C          10.81532304017201  -10.43675341161320   -5.72879399507334
C          11.16237082054132   -9.48740398093530   -6.64369394730203
C          10.67528408376176  -11.84119105738033   -5.94769121075467
C          11.05347277859181  -12.55180339768791   -7.05382749212056
C          10.75001755642328  -13.92857499034789   -6.96333476596221
C          10.11920697062992  -14.25253395821171   -5.74774938430975
S           9.92437081082864  -12.85584994466620   -4.73310259089912
C           9.68607587295545  -15.53018268444157   -5.42248518191617
O           9.08115625118324  -15.63962423088669   -4.21286749680208
C           8.14579704827793  -16.65730277718993   -3.93854336774089
C           9.94474936681825  -16.53956396344073   -6.37331084801444
C          10.58339286267941  -16.20876275363212   -7.61631242760305
C          10.98503082134717  -14.92402033462363   -7.93756477295564
O          11.58468180237807  -14.46571468505371   -9.06536650559952
C          11.81995070454971  -15.31820890709370  -10.16160267348868
S          10.77688101947260  -17.64503351638942   -8.60145276240575
C          10.00258352445173  -18.64792694379787   -7.39908885647700
C           9.64772183054605  -17.91567691152725   -6.29335898763842
C           9.89210667465064  -20.03663564915774   -7.63403014832291
C           9.10630434740431  -20.96973063882515   -7.02380140347337
C           9.47929719440140  -22.40580372429420   -7.16237105691231
O          10.29034397828806  -22.86966739802183   -7.93090769706458
C           8.69167951270688  -23.11481068924882   -6.13661632378368
C           8.73486049494494  -24.43060947340208   -5.77722523540055
C           7.89139621136969  -24.89019588248353   -4.74080392238564
C           7.01919314410073  -23.96895988470700   -4.09112877840948
C           6.18302922165828  -24.43233457229319   -3.05700169941793
C           6.22373212025774  -25.75192781500268   -2.70158826768995
C           7.07379457966084  -26.67323098634423   -3.32817723958061
C           7.89305135281791  -26.23981404804219   -4.33336003243415
F           5.42434896642531  -26.19654082956941   -1.71518487189800
C           6.99240643009880  -22.61149342314292   -4.48834530113453
C           7.81199652042661  -22.19214232511132   -5.50100200781301
C           7.96407958272982  -20.88839495492151   -6.14409126248541
C           7.03541045688259  -19.87830948550753   -6.08762601430178
C           7.04732492209326  -18.75025854027761   -6.92946703513352
N           6.99176643636074  -17.82459669423493   -7.60692952391596
C           5.92060538252025  -19.87561482585818   -5.22660953679925
N           5.01820050066138  -19.79292595730697   -4.52116426231446
H          12.65638463645210    8.37226077755330    3.45398707867567
H          10.83145997990722   12.22922985993903    3.42285360215806
H          10.39820264589620   12.02728931387381    0.98720630943240
H          12.83201135350364    7.06815591625944    1.38763041542365
H          10.53891025610373   10.72793135100491   -1.10885870177123
H          11.05893637604412    6.77939395367495   -4.64217304495735
H          11.55396936440314    4.56829772797380   -6.01657882003079
H          12.60173634528322   -0.56724519844674   -1.47602410920235
H          10.94575944173682   -0.97361336195666   -0.92173744348813
H          11.94194249209330    0.16471191843188    0.00589667449246
H          11.90273694255877    1.94654422524126   -9.06469649008346
H          10.91543251720116    0.66425384782642   -8.32584268724895
H          12.68684887162101    0.67491767936070   -8.09877783311511
H          11.14417157908632   -1.83276449050294   -2.87492075013256
H          10.77246974074538   -4.21662530460842   -3.17456488553029
H          12.71184532193915   -7.29166559603151   -9.81286304037855
H          11.41638907564174   -8.39508162932697   -9.30756927500956
H          13.00655316016781   -8.42601491103101   -8.47385827064792
H          10.02421606177055   -7.44744092283058   -0.87347583286270
H          11.03001474072791   -8.57775782413970   -1.80759348063891
H           9.29144394780307   -8.40774164633485   -2.17830886720903
H          11.35615096554275   -9.75365160172896   -7.66318396364428
H          11.54002047847882  -12.12580425911761   -7.91072589654852
H           7.50260599409168  -16.25878986711227   -3.15354062972500
H           8.63708702991581  -17.55904583124422   -3.55950196118618
H           7.53747438741481  -16.89535676856489   -4.81420095033797
H          12.25643789562824  -14.67974137216664  -10.92888100802580
H          10.89316210968331  -15.75446763027546  -10.54155507022363
H          12.52675839535680  -16.11399611591908   -9.91352139444890
H           9.24631000845335  -18.39358870181593   -5.42028816529729
H          10.57854295557278  -20.44298556985683   -8.37152959014797
H           9.40280998469905  -25.11425090202803   -6.27934816355309
H           5.51294026590265  -23.75193419761768   -2.55505639943721
H           7.06290187221369  -27.70193929525599   -3.00468629792061
H           8.55637624483945  -26.93076894110947   -4.83146216119807
H           6.32695369276236  -21.93603848872399   -3.97433039882143
