138
 SCF done       -266.950911162941          0.000954411864
C           5.64269503253606    6.29216207891931    4.39509729599412
C           5.01829263671679    6.86280053391523    5.46913804074863
F           3.90556551221816    7.59473347451868    5.27621334505402
C           5.49205281583368    6.71586931170544    6.77979283245232
C           6.62085716454878    5.97530490567211    6.99529526817895
C           7.30450711683558    5.36439199170776    5.92427901950546
C           6.80728243384000    5.52670736861217    4.59842624895160
C           7.47981290495350    4.92902497196807    3.50652085641845
C           8.60910463772502    4.19121112457293    3.73642912677741
C           9.09203429512292    4.02017198151364    5.06566185136029
C           8.46810744228011    4.59153254041089    6.13648245783601
C          10.28563961684514    3.15410782535856    5.04094071133362
O          10.99081038321680    2.83155438379012    5.96974910460884
C          10.41425456808080    2.70326841771715    3.62701986947402
C           9.51313831429252    3.49548876879889    2.82202186105191
C           9.62626589125163    3.75521411078135    1.47979614340670
C          10.68079503374639    3.27467994591345    0.67922936209990
N          11.53891174451642    2.93325992218654   -0.00254374448059
C           8.75174647964584    4.59805226153967    0.76569313402628
N           8.05407559083261    5.25493068224117    0.13282864468101
C          11.22081723953086    1.63708137817703    3.36085667890962
C          11.24544495090302    0.77102872369243    2.24539041140466
C          10.30075875965240    0.54201762483799    1.27591397209211
C          10.64276756808437   -0.47652983241685    0.36913769724984
C          11.91015777205084   -1.06008462243169    0.64354268094604
S          12.61307935002945   -0.31049068291226    2.05925894638801
C          12.41459896268700   -2.08034916095903   -0.14558523256594
O          13.59336008962295   -2.74026910235371   -0.03408644964626
C          14.54427198822344   -2.33645732155357    0.92371024539102
C          11.59383937062638   -2.51796912111428   -1.20693468227292
C          10.33506412657520   -1.92651598993073   -1.48978221260716
C           9.83638492192679   -0.89128087099248   -0.71663794764298
O           8.67037256327322   -0.21715341440123   -0.84332177193785
C           7.83326258796172   -0.44606946958333   -1.95342265271475
S           9.59449712186354   -2.72464618335006   -2.86636096324748
C          10.94336685390038   -3.82852446122199   -3.01692797187287
C          11.90456360123977   -3.58424492586707   -2.08213719334913
C          10.91385845085241   -4.85781779214968   -4.00134859117485
C           9.97622639121666   -5.05564417096944   -4.97202951028099
C          10.19953041898169   -6.21787162096216   -5.74949560318043
C           9.43352661715948   -6.70116013436897   -6.82896295140066
C           8.22021449852268   -6.02762591567701   -7.24810026034211
C           7.22973611578293   -5.50978755257839   -6.46487232583225
C           6.19532658632188   -4.91451023067933   -7.21950624617990
C           6.38062532430940   -4.96406764353561   -8.57004047180084
S           7.86617798524667   -5.77560265853804   -8.93518990364093
C           5.50635531625226   -4.44208543633939   -9.65051305031670
Cl          4.82099301756700   -4.18742050827210   -6.47655929343516
C           9.88969110618083   -7.85955711700673   -7.44643547610113
C          11.05132166781773   -8.55541730664848   -7.02991147497063
C          11.83506654395000   -8.05541638031827   -5.97040196795399
C          11.37142581970753   -6.90415682004384   -5.34475760512680
S          12.15088104682620   -6.09713976061092   -4.01180495610713
C          13.06057270217701   -8.71900640940501   -5.57520593497239
C          14.01708346316627   -9.25995907402600   -6.38573491264576
C          15.08322646209986   -9.83481022185510   -5.66064544942468
C          14.95584619924210   -9.74760594279015   -4.30502481526694
S          13.48701663565600   -8.92544644493482   -3.89857820272371
C          15.87286123479485  -10.24615538759448   -3.24933563555857
Cl         16.42600854402329  -10.58051819074794   -6.44063710804302
C          11.22627363585200   -9.76260206356586   -7.74820223214955
C          10.26485010343903   -9.98551853834956   -8.69004228000655
S           9.08330650118648   -8.69423616800379   -8.74668884708333
C          10.14064098980253  -11.11654117841967   -9.54802633252165
C           9.19387403320782  -11.33838822743584  -10.50804613402404
C           9.33778028154599  -12.58594938310154  -11.15656258204981
C          10.43388342368676  -13.31574689753688  -10.65770514345752
S          11.27638101515589  -12.44632423333531   -9.41115541136333
C          10.78907024491021  -14.57674972089363  -11.11341999964863
O          11.88312321357694  -15.12145672146602  -10.52541995671017
C          12.69030142773381  -16.06195180818227  -11.19953823121153
C           9.95316097592105  -15.14276898538396  -12.09869188299517
C           8.85876982685167  -14.38609052758053  -12.63597122952236
C           8.53937793866923  -13.11195614942795  -12.19661790827958
O           7.54963969453542  -12.28470614220427  -12.61130041421813
C           6.73487150058249  -12.62069735739087  -13.71016834884698
S           8.00255956935904  -15.33110360204078  -13.83803040010338
C           9.06704350973756  -16.69844597088797  -13.61226307220949
C          10.02193808188338  -16.43295767532861  -12.66186509455316
C           8.79634074880686  -17.89815519339111  -14.30799524777490
C           9.56436552229022  -19.01482193748301  -14.45801230424157
C           8.89142832216844  -20.29410011445754  -14.82238538023681
O           7.76580523296799  -20.42364366265276  -15.24517082959508
C           9.86824514649177  -21.35150970182032  -14.49846052805258
C           9.70839082547406  -22.70661350248357  -14.52095751579669
C          10.78307321057678  -23.53408874357816  -14.12398667713920
C          12.00785293563779  -22.93617960830168  -13.70661073567272
C          13.07029503961500  -23.76634341861941  -13.30018264582807
C          12.90600385358645  -25.12356290310801  -13.31769891311558
C          11.71130931548294  -25.73069888771183  -13.72766029507641
C          10.66934261920646  -24.93931409127353  -14.12440335648642
F          13.91952966273064  -25.91789487277949  -12.92875396004948
C          12.14906311327904  -21.52855122489699  -13.70496129476552
C          11.09621112627893  -20.74909700996819  -14.10015792123090
C          10.96051946235439  -19.29957354660740  -14.22279017758441
C          12.00818008741539  -18.42003390034418  -14.33554066541637
C          11.85470564804780  -17.07252036931387  -14.71333078694813
N          11.78072268258481  -15.97223380162659  -15.03321286237566
C          13.35825433879962  -18.77283033191203  -14.14394827411513
N          14.47096524848514  -18.99227359406106  -13.96522167256725
H           5.25111150847313    6.42970962557268    3.39931290722048
H           4.95711959007251    7.18905819800109    7.58788667765278
H           7.00553839148744    5.84738354947246    7.99592650753511
H           7.07691527861030    5.06245271133780    2.51497734333917
H           8.85652019272263    4.45462121138415    7.13453025286854
H          11.89236722135738    1.37128635111861    4.17260234044206
H           9.35111504812655    1.04272254750138    1.23043386328387
H          14.17996617390946   -2.48324000180722    1.94381222397313
H          14.83694278065984   -1.29265688380118    0.78617860046016
H          15.40843530275537   -2.97773749929885    0.75551387964934
H           8.35800871878789   -0.26996088838016   -2.89541471850360
H           7.02162458739694    0.27330776752535   -1.85376286124526
H           7.42157469066880   -1.45867104753946   -1.94729215443593
H          12.81302830405527   -4.15289413004690   -2.00491981397711
H           9.16126652784993   -4.37378570437595   -5.13270732502679
H           7.20715318198297   -5.58368204176737   -5.39344660131234
H           5.11910227465111   -5.25973812527760  -10.25794163715519
H           6.06299710013511   -3.77324888714641  -10.30521682123948
H           4.67018915003492   -3.89978825612753   -9.21657308138245
H          13.99189371415730   -9.21693484965867   -7.45877597322289
H          16.75038409295375  -10.69455824517492   -3.70828229114741
H          15.37635220218484  -10.99379290307025   -2.63136918210727
H          16.18848621047988   -9.43069041461320   -2.59980965791741
H          12.01505851944167  -10.46656753156157   -7.55593668439107
H           8.41338100010846  -10.63878886955889  -10.74527088863472
H          12.69915044652884  -15.89085762608359  -12.27801945249817
H          12.37220844155152  -17.08613302568671  -10.98023322362508
H          13.69770904702458  -15.92278337788011  -10.80589296537161
H           7.32593274914682  -12.80879209561628  -14.60970872518868
H           6.10319073952224  -11.74807941504882  -13.87192617076408
H           6.10236177571346  -13.48647662379906  -13.49789042013307
H          10.70080543039709  -17.19296768815875  -12.32529063537666
H           7.79501511476089  -17.98341279645017  -14.72016517208197
H           8.77238392120933  -23.14337790049636  -14.83521537643993
H          14.00591889529968  -23.33357403445876  -12.98204801121581
H          11.63992568499369  -26.80673698990419  -13.72078445167278
H           9.73888426262613  -25.38386099012425  -14.44397522807271
H          13.08490202740716  -21.10231780145355  -13.37917076516164
