120
 SCF done       -227.804304055532          0.000373085912
C          11.06430787365008    8.77063644222480    3.79468818759716
C          10.86719613661018    9.74930222874790    4.72871181510709
F          10.17248806213839   10.85268192160983    4.39544654179597
C          11.36489222786109    9.65268016224777    6.03508913309931
C          12.07482757164354    8.53980417513914    6.39152508650803
C          12.31078773723613    7.50144337573551    5.46764681527816
C          11.79735841928124    7.61971973369290    4.14313657099569
C          12.03558083317592    6.59888772477807    3.19341904384633
C          12.76325730622852    5.49951264950664    3.55947777267295
C          13.26068411882029    5.37817068888010    4.89010333275980
C          13.04786952522055    6.34961031723534    5.82477013492378
C          13.98731566891745    4.09984688730580    5.02689424010590
O          14.58032873619397    3.67878098815832    5.99419631157708
C          13.79017599429816    3.40274058239762    3.72818329506941
C          13.21633182227506    4.34394028179856    2.79342166250205
C          13.32940799421651    4.28629421438771    1.42670276849543
C          14.10302098093942    3.31431219329274    0.76020163879356
N          14.78451487142042    2.58164343287279    0.19577679343457
C          12.78021031462951    5.24172295631663    0.55090276684040
N          12.32526255252180    5.97434652474816   -0.20737934054614
C          14.05943073191533    2.07416243067794    3.60734903302064
C          13.59229935944555    1.17875998026825    2.61212138651430
C          14.21131859300314    0.02407200048303    2.21195854349289
C          13.55501283496680   -0.67218648254912    1.17434989939993
C          12.31316770744962   -0.04414188175672    0.82318789583914
S          12.07663207952519    1.41367188460722    1.77176587717332
C          11.44551035766511   -0.55615190340270   -0.12227933148645
O          10.25188212203277   -0.07003541949121   -0.54527387587839
C           9.84486402124949    1.23627773755231   -0.21073178544790
C          11.83871577284153   -1.76282497967434   -0.75225997119565
C          13.07601367931515   -2.35766119194036   -0.43390633995005
C          13.96324640269950   -1.84174165526310    0.49987778563239
O          15.10942894525788   -2.54902768946659    0.65037158760290
C          16.28916193224693   -1.95165852433561    1.14033025299917
S          13.36560847790248   -3.77571722215978   -1.39144362192087
C          11.82833247753551   -3.56694333174599   -2.22467332401251
C          11.14903807997547   -2.46195310950443   -1.75879688990856
C          11.50172338953599   -4.48174357286882   -3.24644111128959
C          10.35935726815508   -4.53639649014819   -3.99976430602172
C          10.12715700202338   -5.44931136015689   -5.06395748000916
C           8.92072949977290   -5.31171828432066   -5.67529056147358
C           8.11299796726970   -4.29204247195617   -5.12098520329606
S           8.95647150593497   -3.50121658884854   -3.80465109443492
C           6.83793910706763   -3.91770502247048   -5.48803999232795
C           6.04284011930038   -4.41573856698614   -6.54559743945123
C           4.81517618415196   -3.83762781104335   -6.63151982976816
C           4.55023263361180   -2.85571957069344   -5.63871897690957
S           5.96194922874241   -2.68342179736084   -4.60793869290923
C           3.36855396553790   -2.17814917237293   -5.49928711214650
C           3.00652456557009   -1.24603455688446   -4.50410442787471
C           3.74104040936066   -0.75185040786526   -3.44910387979225
C           3.03002870025878    0.13275646940909   -2.60904985700461
C           1.69743035724012    0.31316728301384   -3.07595861028586
S           1.37367042607439   -0.60265518449169   -4.51653943813116
C           0.72533403730050    1.10047933484305   -2.48051833323218
O          -0.46931413204754    1.09746302174927   -3.12461274461940
C          -1.64196204813568    1.56634974553454   -2.50568908480139
C           1.10118946593214    1.78566608465510   -1.30478135817606
C           2.42823846639365    1.59453680299244   -0.82738370422304
C           3.40061849450114    0.80658499140330   -1.42588716983512
O           4.58882989730920    0.80654660719880   -0.76770774878976
C           5.65438614380037   -0.02897860577000   -1.15018338315130
S           2.73458139378334    2.46997310238242    0.63998307075927
C           1.08801792381344    3.06880631651038    0.65220888815292
C           0.37829018968513    2.63694744439136   -0.44604940372202
C           0.67585840235966    3.93837911152256    1.68650684637101
C          -0.57994947888963    4.31126326260738    2.06977504578685
C          -0.73197107212217    5.54349489635494    2.89311568977947
O           0.15037946055948    6.15030494914961    3.45607403693668
C          -2.16628525620055    5.88397664938312    2.82688391157909
C          -2.81427717450928    6.97903436758280    3.31991840336350
C          -4.20539736924383    7.11056427335172    3.10814926636296
C          -4.89848275160249    6.10064657021384    2.37960708901617
C          -6.28303094716958    6.24166885903204    2.16396792319600
C          -6.93109680048459    7.33853595286535    2.65983025188753
C          -6.26843585394264    8.34077794043903    3.38093489098146
C          -4.92381504343156    8.22032952599529    3.59772649951411
F          -8.25427782157311    7.47452444320578    2.45510361183642
C          -4.20192071278326    4.97172326903078    1.88806296557011
C          -2.85698277424527    4.86161776595066    2.11534166595466
C          -1.90130755527323    3.80971211856679    1.77278456726823
C          -2.24690770350308    2.51669174148030    1.46558889203953
C          -1.33488491669762    1.44491843070232    1.41460581082833
N          -0.64912293111799    0.52439021951034    1.38441042303742
C          -3.56726253420342    2.08750353752864    1.22832175856728
N          -4.61405878327505    1.68411973410663    0.98189429424514
H          10.66889641273575    8.87993964396102    2.79691476608211
H          11.17793078756673   10.45666155070833    6.72914629252648
H          12.46818330431697    8.44256541579371    7.39225958516021
H          11.63212345589979    6.70894121782579    2.19907381936954
H          13.44169273279328    6.24457493155208    6.82463392977582
H          14.65556492514173    1.63781494230913    4.40267595899755
H          15.14051482800038   -0.27510132093127    2.65738438887395
H           8.93867232246914    1.41038375891601   -0.78984387850792
H          10.59713229858677    1.97775571109945   -0.49151247253565
H           9.61400846786555    1.33247647182405    0.85374579439079
H          17.10655234597660   -2.54716588612051    0.73235427629092
H          16.33409170748703   -2.00036408184675    2.23260240906714
H          16.38984821786499   -0.91811829451246    0.80200144579675
H          10.19569328974456   -2.13527987289193   -2.12778254293432
H          12.25642658059434   -5.22434357319795   -3.47082328958654
H          10.87104108615071   -6.17453799372263   -5.34274774352835
H           8.58500548538308   -5.91719029028896   -6.49782082271110
H           6.40043374089897   -5.18026040271086   -7.21153553184432
H           4.07579517395902   -4.08830621833580   -7.37142852033336
H           2.60055149819386   -2.40754011084140   -6.22636880280941
H           4.76365365406042   -1.03375798669306   -3.30397961517231
H          -2.46035134282217    1.20182108571465   -3.12621566016204
H          -1.67521946128503    2.66036839300988   -2.48703542438731
H          -1.75227561889899    1.16461341377463   -1.49477641296594
H           6.41632076336371    0.11503137886247   -0.38450928954065
H           6.06529785871659    0.26007934852188   -2.12182985956794
H           5.35837802597797   -1.08092491396034   -1.16488357780845
H          -0.61779815110848    2.98949521840901   -0.63414820848949
H           1.47552782376817    4.43846681293258    2.22469896225278
H          -2.27268295963347    7.73684197384719    3.86584413080664
H          -6.82635885403626    5.48714414986501    1.61679550235135
H          -6.83234681427091    9.18342544872766    3.74833557727367
H          -4.39128680687451    8.97955479872717    4.15046738151124
H          -4.75156164973817    4.22590180201335    1.33588087762765
