124
 SCF done       -227.626543020158          0.000335310009
C          13.93428303023399    6.38877105873087   -2.24245337535619
C          13.90871491240299    7.50254682996005   -3.03406845938366
F          15.06893038095729    8.04473023844679   -3.45816494827614
C          12.71654979740858    8.11208003905167   -3.44469062586113
C          11.52750643614606    7.57111435871214   -3.04293126840961
C          11.49301156911510    6.42737313467301   -2.22061227517043
C          12.71793938959837    5.83049107648706   -1.80459548548594
C          12.70744529980863    4.70934838698388   -0.94318380234343
C          11.50959749179379    4.20886862272227   -0.51043620229382
C          10.28641423305943    4.78108340762872   -0.96647719889643
C          10.26901229905655    5.86432363188490   -1.79623898087298
C           9.15007062649382    4.03128142557687   -0.39335131818963
O           7.96686712037885    4.23086787953195   -0.56817278393724
C           9.76145503067156    2.92672927262978    0.38747115454770
C          11.18695964592728    3.16822255910356    0.46060401796566
C          12.02518484231587    2.75492933566643    1.46488992204778
C          11.57944017725154    2.07386998518879    2.61688576356039
N          11.24752489194454    1.58946792128774    3.60359874493284
C          13.40179537234661    3.04732593942020    1.51130302311561
N          14.53475758083641    3.21948310270103    1.58189648276894
C           8.99792243438488    1.88242508147439    0.82281570917422
C           9.43344481021309    0.59896362528051    1.22129366293872
C           8.75820712643078   -0.31891564339401    2.00294496605802
C           9.47038459117582   -1.49375850630382    2.26310034186618
C           8.92752276718222   -2.58104547169370    3.08741398341855
C           8.76290407088125   -3.86348312512220    2.54904933194127
C           8.21273453011775   -4.87152421459918    3.33045597160468
C           7.83635541843364   -4.59547702632627    4.63243758270648
C           7.99124617636918   -3.33566023717602    5.17860789342321
C           8.53261606493064   -2.31385079768593    4.40532164186037
O           8.73716562148993   -1.04293494251625    4.82803077545620
C           8.48088339365806   -0.71940463029355    6.17335773148165
O           9.17363628275694   -4.01498228163320    1.25756942923874
C           9.06094589554027   -5.28483189728628    0.66197708944930
C          10.71492280429518   -1.51506811612451    1.64327583437155
S          10.96034519097566   -0.06318128873082    0.70842937355297
C          11.81278519376111   -2.41400413769080    1.75770574264340
C          12.91956559669908   -2.24407154815823    0.95679355341760
C          14.12718069992614   -2.91581929384977    1.07765728133606
C          14.26724064722808   -4.04779906330295    2.00018802835014
C          13.29527741743617   -4.41918678799628    2.86352927692140
S          11.77625473536362   -3.62875029074084    3.02440295180628
C          15.56266023169753   -4.57497635790810    1.74478267920255
C          16.19366511081872   -3.81823687718668    0.75162919474590
C          17.49531415351507   -4.28836245562578    0.46946797394479
C          17.81206418687141   -5.36633058356419    1.23239535566670
S          16.55634299116247   -5.85165489121253    2.32387108025670
C          15.31944069085720   -2.75508174770243    0.34188533494446
C          15.60006714428993   -1.77001517747736   -0.63747449216370
C          14.96871563935017   -0.56884671037439   -0.72905579527447
C          15.02696035280567    0.30901262633232   -1.83513086555921
C          14.18618032010715    1.38957932571618   -2.04510862766160
C          14.30254478966294    1.96451741165860   -3.30898919405309
C          13.45945222915686    3.04168761646955   -3.83151097105706
C          12.06405341845143    2.96652024285996   -3.69423539717711
C          11.25685338617457    3.91202968995405   -4.31539717326318
C          11.83466613995840    4.93276395642391   -5.04643234442631
C          13.20677950218026    5.05231630765423   -5.15267034186066
C          14.02981772207900    4.11595013030047   -4.53696923265518
O          15.38372169445159    4.16711840407173   -4.53844794363240
C          16.03944048261943    5.15171766530937   -5.30245385030198
O          11.58581668530570    1.92113140466368   -2.96179369427321
C          10.20231226769872    1.66273689943837   -2.97114156456595
C          15.29851803212243    1.35639503473453   -4.08242171140353
S          16.04795192211072    0.04324882620467   -3.21309326110491
C          15.57021117112761    1.61916450515964   -5.43757687775767
C          16.67464059879394    1.31166822971371   -6.17923055732033
C          16.57908647643630    1.27382368782641   -7.65689648842150
O          15.67220049009865    1.70078169631642   -8.33994091475420
C          17.79762624805891    0.57021681680212   -8.10764207281400
C          18.15225243646533    0.18174677799507   -9.36656306875210
C          19.36964722874733   -0.51031078167395   -9.55812698281219
C          20.19549000835863   -0.79396116152018   -8.43198511998084
C          21.40372802664372   -1.49024097955297   -8.62931612164835
C          21.75985421283157   -1.87248796597341   -9.89238110386184
C          20.96386786390602   -1.60009068177861  -11.01274491881598
C          19.78595064237681   -0.92807521292727  -10.83847101081485
F          22.91620131804786   -2.53680833740436  -10.08293822765886
C          19.80668193454613   -0.37130437182202   -7.13899632855683
C          18.62987802491907    0.30768407060761   -6.98108069109398
C          18.00703108566489    0.90465589298645   -5.80132578933673
C          18.66931372854129    1.25543965784470   -4.65242744152834
C          18.13980291782393    2.13462548134905   -3.68476451028323
N          17.78751763802235    2.90409297860866   -2.90918019861417
C          19.99324017383027    0.87234540510673   -4.36591471970428
N          21.06239047444235    0.56583565029971   -4.07899864352761
H          14.87238793562314    5.94312858356224   -1.94995956308989
H          12.76259217411868    8.99060329899729   -4.06882466600636
H          10.59415363673059    8.01983040287537   -3.34828159946491
H          13.65055702321224    4.28041356552637   -0.64351514786777
H           9.33195777628817    6.29684192341365   -2.11436345050803
H           7.92448669376034    2.04269179759146    0.80682446287271
H           7.78471060557678   -0.12167949800077    2.41423933764885
H           8.07240152430715   -5.86496892498784    2.93804368443596
H           7.41054442197001   -5.38330492633362    5.23515246041611
H           7.68658092582588   -3.15672020074334    6.19649213396034
H           8.78550624188208    0.32010729623704    6.28140127523592
H           9.06856731669078   -1.34188502961674    6.85478588998234
H           7.41741557735307   -0.81530634471751    6.41609038895888
H           9.64929331089019   -6.03422261023232    1.20098794401059
H           9.45868971889050   -5.17171879567715   -0.34544322153056
H           8.01815978745701   -5.61163249381055    0.60394748081047
H          12.82114238266768   -1.52290387713691    0.15838156533850
H          13.41207691337352   -5.24773944397553    3.54461273925530
H          18.16107997100009   -3.85555898913093   -0.25473510785440
H          18.72617816513342   -5.92721381996215    1.23087058518958
H          16.35992654905224   -2.01345430832202   -1.37104416859640
H          14.32508938151298   -0.23465116475537    0.07170768909594
H          13.48132582750219    1.71881266010365   -1.30444116316996
H          10.18363857045501    3.85736835487824   -4.23941653206919
H          11.20076056480032    5.65383711252659   -5.53945218585811
H          13.62740849990266    5.86700584491714   -5.71817149653938
H          15.80096082936267    6.16148543995753   -4.96093672975096
H          15.80017184448827    5.05559529952235   -6.36633245141525
H          17.10171673113975    4.96782398948143   -5.15047810546958
H          10.07169230121785    0.76207802244603   -2.37238507464286
H           9.83611691982117    1.48189929212896   -3.98619675454031
H           9.62818585804490    2.47816477442717   -2.52025266065868
H          14.74901230623048    2.05487154309557   -6.00082706298214
H          17.51295867277925    0.40026125085596  -10.20892821600356
H          22.04382698427049   -1.71308223000335   -7.78994150092609
H          21.29691209599629   -1.92523565944024  -11.98561598605416
H          19.15522982441694   -0.70656584743231  -11.68643402082914
H          20.44813074561851   -0.60166600201211   -6.30304468057077
