84
 SCF done       -169.125795452241          0.000931911768
C           4.74531122798048    5.37144750684152    6.06337830376212
C           4.17432890570305    6.53526915472846    6.49780559079158
F           4.06617258162876    6.76692472949873    7.81839276681904
C           3.69166407411698    7.51085790525227    5.61479896612410
C           3.79456000815057    7.29408901997996    4.26884323434898
C           4.37669291858724    6.11258901947369    3.76549834179951
C           4.85896348276974    5.13149603193862    4.68033923458426
C           5.44126727473926    3.93515252519040    4.20008306780461
C           5.54242919771504    3.73394873960606    2.85054274991808
C           5.07542041950186    4.72578744357948    1.94057623833889
C           4.49949893243609    5.88402338039952    2.37643078139347
C           5.34917294948517    4.28581172112346    0.55906207309719
O           5.04877675188723    4.83900476117824   -0.47353784110486
C           6.14251470045643    3.03189618518428    0.69924312781787
C           6.06706537727076    2.60934283825891    2.07944723330030
C           6.20763569483118    1.32952069941679    2.55149525924170
C           6.47337776891079    0.21848818215718    1.72699165966318
N           6.66034587900750   -0.71731918848343    1.08932708160897
C           6.02586731268445    0.96687803576868    3.90131146243263
N           5.91135259565592    0.62409107337932    4.99082488636397
C           6.83654086769148    2.56911910666840   -0.37886663487863
C           7.93877490632133    1.68845156231367   -0.42022842200713
C           8.81888515279113    1.33265244362213    0.58925877846422
C           9.82014436711700    0.48818035342729    0.12948457443462
C           9.72614830100784    0.17259069827458   -1.23497382358574
S           8.38777381069664    0.96990789539276   -1.96238648740382
C          10.72388469762671   -0.69320729289500   -1.68460546606364
C          11.58996751639370   -1.04407588960879   -0.67128324499284
S          11.17257040453807   -0.29817256184067    0.86204782545102
C          12.72180971325400   -1.89623943041233   -0.75616963294537
C          13.58361124482754   -2.24611429338271    0.26063662655876
C          14.59177594795248   -3.09970686503452   -0.18876433189785
C          14.51230050340905   -3.41066180204617   -1.55122781331551
S          13.16033863961063   -2.63134786496146   -2.29009160643817
C          15.52308848200493   -4.26084567437789   -2.00146382947810
C          16.38603334064095   -4.60888605777309   -0.98501856963013
S          15.94493972384369   -3.87707934055680    0.54974288156793
C          17.52506764857308   -5.45127650839709   -1.07107965452741
C          18.38769416124453   -5.80367103691411   -0.05543833900364
C          19.40052532037939   -6.65010059280333   -0.50805623036592
C          19.31758016288942   -6.95525935971293   -1.87555504054903
S          17.96540311229461   -6.17073986090216   -2.61073462817161
C          20.30685148177868   -7.81822311171184   -2.32742249279575
C          21.17553377940046   -8.18516684249462   -1.31219403936287
S          20.75561453158249   -7.42155214235108    0.21617520184253
C          22.33280079051072   -8.99143870443005   -1.37138023049117
C          22.70787874681761   -9.89189182409684   -2.32335123745379
C          24.14504945332842  -10.27250576073392   -2.42717396900591
O          25.01182590188204  -10.04936794771044   -1.61384456068895
C          24.28064977086595  -10.91300170852446   -3.74935722815897
C          25.41084532166896  -11.32909701508825   -4.39173706229693
C          25.30270424576817  -11.88628418665911   -5.68578287127269
C          24.01803069398684  -11.99740996636850   -6.29348133636142
C          23.91877611558042  -12.54204295722695   -7.58840755766679
C          25.05250548584200  -12.95449155702937   -8.23159431299776
C          26.32407180344734  -12.85680608608044   -7.65021146271667
C          26.43852308380669  -12.32931788230925   -6.39410913348777
F          24.95985222799385  -13.47417770927229   -9.46876364783405
C          22.86256451530003  -11.56772843002270   -5.59985629597865
C          22.99228538015065  -11.03964210211004   -4.34430199216705
C          21.99506225423178  -10.54628182039675   -3.39732316722799
C          20.66491439804586  -10.87950862840947   -3.41179745667582
C          19.77836549806891  -10.60265123441461   -2.35240655890597
N          19.02871841378614  -10.42769334988551   -1.50114296565807
C          20.04976125079095  -11.60713335762549   -4.45048718789110
N          19.49732943044899  -12.17597110281029   -5.28040570927212
H           5.10261659055507    4.64042055162930    6.77177529794030
H           3.25086065685511    8.40975034077492    6.01578094368892
H           3.43016369749969    8.03117470861609    3.56922112207569
H           5.80456227806547    3.21264821779714    4.91384513692010
H           4.14390820412163    6.61940140449159    1.67039204872779
H           6.54166412454171    3.00309213748481   -1.32968819155290
H           8.75954045157396    1.70791023443031    1.59437146758852
H          10.81946504453108   -1.05283861843352   -2.69266119019794
H          13.47671100835639   -1.89596191099376    1.27086816814845
H          15.62982961203155   -4.61140457775477   -3.01160162000719
H          18.27761361362354   -5.46093364178937    0.95704027967948
H          20.41823904551548   -8.12758188780100   -3.35048340925712
H          23.06752612839879   -8.82334651705668   -0.58954069651704
H          26.37704607781302  -11.23276037860349   -3.91966668589208
H          22.95543054059398  -12.63613425410020   -8.06483714566847
H          27.18281283915663  -13.19894894968196   -8.20567537518316
H          27.40743921879112  -12.24353394085294   -5.92573990639598
H          21.90358021421669  -11.65670488272520   -6.08550411880315
