100
 SCF done       -206.470879868915          0.000618632293
C          -0.77794554204777  -11.42335324427399    2.17898682992559
C          -2.13371350980190  -11.59207727881534    2.12740543154848
F          -2.65604906213449  -12.81785262074664    2.31636379381468
C          -3.01479486189624  -10.53043847989528    1.88169684058490
C          -2.50223257775177   -9.27829225689021    1.68551686486339
C          -1.11197154499643   -9.04780706095919    1.72558474245600
C          -0.23249845076834  -10.14047025010593    1.97924348104624
C           1.16647543424491   -9.93321349023265    2.02797524517952
C           1.66481991229224   -8.67621535814448    1.82043029715104
C           0.78152887961606   -7.59109463798914    1.55183437209587
C          -0.57193658825529   -7.75981865618027    1.51131929442099
C           1.57142702401438   -6.36754176998955    1.31631402681931
O           1.16698075808047   -5.24461730370595    1.12360621577043
C           2.99224464182422   -6.81887843318831    1.30543973628306
C           3.03436986942872   -8.16545544014157    1.82275937724095
C           4.10341769517888   -8.76504303259052    2.43898930344639
C           5.33533793900140   -8.11321368748291    2.64416092830229
N           6.33990582475566   -7.59847458453024    2.85292759400477
C           4.05679459761752  -10.05198318784526    3.01022027679950
N           4.06882116233013  -11.10326399634118    3.47125899554661
C           3.92696726755146   -5.99602627141403    0.74891922940981
C           5.20470120788643   -6.27933014147745    0.22550160309382
C           5.81347685515877   -7.47828449199517   -0.10847094679818
C           7.04629548198642   -7.30898297836077   -0.72611105007446
Cl          8.00760905936851   -8.62707735131445   -1.24812992614347
C           7.43142749482929   -5.97796841617575   -0.89606206943289
S           6.20614529491209   -4.93453312544669   -0.24991137785587
C           8.57363116550138   -5.47163192979179   -1.55316373176146
C           8.89571591530689   -4.13559885511540   -1.78848407975651
Cl          7.97644513561718   -2.82707814730717   -1.17829970207302
C          10.01790143793631   -3.94255706052595   -2.58406322864236
C          10.61330189099683   -5.12664444097792   -2.98882688914680
S           9.76554132042513   -6.49534094150261   -2.30720605541138
C          11.68181180345002   -5.33113829669503   -3.88398042921819
C          12.11215793623281   -4.42462734395846   -4.82117184318051
C          13.11888495076187   -4.61995868470587   -5.80345820232364
C          13.21417155737504   -3.61911894942262   -6.72469026943617
C          12.29074987292870   -2.57075779039498   -6.52189225961604
S          11.34245695155288   -2.87251661770604   -5.08398640386521
C          12.00165796272522   -1.45354714569297   -7.28292999931710
C          12.53737632138433   -0.99617954186162   -8.50561749640144
C          11.90328877666880    0.10339494028400   -9.00506249742290
C          10.82862909874524    0.57939862959043   -8.20898478143749
S          10.69949195040601   -0.40581065466221   -6.76766058015784
C           9.94215069247047    1.57855211620756   -8.53286009647742
C           8.83981188899323    1.98247572579787   -7.75802436425401
C           8.53820009802941    1.70404119547903   -6.43307215719682
C           7.30196207126058    2.19330951494848   -6.03646740118685
Cl          6.70096984651162    1.95659907701671   -4.44966629497130
C           6.59366396707517    2.86562495983539   -7.03189071116423
S           7.55116745099387    2.91372294937456   -8.48715433736959
C           5.28056831463981    3.37313550105452   -6.95721960213763
C           4.51327065815927    3.97753281330824   -7.95141216649700
Cl          5.12681330905554    4.30453677481077   -9.51701323088586
C           3.21315052708827    4.28763524815176   -7.56383221855169
C           2.92590072138236    3.90546786130664   -6.26609364458872
S           4.33661092061368    3.21863458206187   -5.50767713755520
C           1.71228646368957    4.10273709787028   -5.56889184954337
C           1.31055734159011    3.53932285552438   -4.39525933796360
C           0.27778242663817    4.21963101777797   -3.56555209333170
O          -0.48269426629699    5.08995856421799   -3.92224346666817
C           0.44185822513990    3.65148839987853   -2.21245671493922
C          -0.15568071805971    4.02634384408828   -1.04371083892478
C           0.19024507798322    3.35891446869072    0.15293564826267
C           1.15392706232191    2.30889650932440    0.11557526125464
C           1.50185680643180    1.65692544851884    1.31456921175144
C           0.90972315118510    2.04324411357209    2.48471718248187
C          -0.04140232039129    3.07108291850093    2.54209965921862
C          -0.39170832366184    3.71359239476105    1.38733039121786
F           1.24353546842572    1.42579307568521    3.63228538738541
C           1.74759320769690    1.93196777579973   -1.11178218035076
C           1.39406323531423    2.59177764946410   -2.25687287356706
C           1.80882227128502    2.40612246524126   -3.64363731507331
C           2.31650861934944    1.24640398795306   -4.16825316025076
C           2.40795156519198    1.00589294773991   -5.55523370530787
N           2.44450206765586    0.75863003198884   -6.67553107756817
C           2.72983737480418    0.14572761586639   -3.39245711820911
N           3.10819379085615   -0.76605150794655   -2.80639654611326
H          -0.13022767713812  -12.26375824960167    2.37390183412831
H          -4.07533118350225  -10.72392391089352    1.85209338357566
H          -3.16025173615839   -8.44410516612919    1.49378216713729
H           1.80985707243882  -10.77862544961968    2.21494284081860
H          -1.22328961495510   -6.92187855677963    1.31315044462975
H           3.58705449405952   -4.97476814224462    0.60003072622878
H           5.36717421604782   -8.44476871477537    0.03516366127625
H          10.39215777134395   -2.96453986406557   -2.81762281524983
H          12.13545357841657   -6.31276373074127   -3.89474246374264
H          13.72566733736479   -5.50819517313474   -5.80836203792269
H          13.90308209986687   -3.61783709381879   -7.55050110785453
H          13.35647768516516   -1.49676826652781   -8.99036677061719
H          12.16068837928123    0.58127065981500   -9.93379113206057
H          10.05671341844041    2.04613822922713   -9.50134211811240
H           9.19150515277407    1.19178373439010   -5.75411816465114
H           2.49237760149115    4.74091382973912   -8.21935211200050
H           1.05275061329747    4.86490131977259   -5.97194296542145
H          -0.88197065478890    4.82514560816547   -1.03007900049392
H           2.22614558860466    0.85752566862524    1.30688001212453
H          -0.47509528844728    3.33233068113334    3.49437136100133
H          -1.12222183663924    4.50833088812250    1.40662510861024
H           2.47883567911725    1.13895208143557   -1.11470261167458
