109
 SCF done       -227.724315580009          0.000910826204
C           6.23385034533601    5.96941288637086   -7.85472032612082
C           5.14743330121842    6.44125183709447   -8.53711672500836
F           5.27641007821338    6.78419927650386   -9.83229174173018
C           3.88844405923125    6.58545166237195   -7.93883199694980
C           3.73817841256843    6.24162127505488   -6.62419458442777
C           4.82455919651522    5.74840741405252   -5.87300064067125
C           6.09771445358153    5.61177970721295   -6.49912922162795
C           7.20526577543883    5.12920896147362   -5.76330873196589
C           7.04186516382217    4.79214334023752   -4.44703263915531
C           5.76221775025722    4.91306275667516   -3.83210251645207
C           4.67850871410990    5.38284342206508   -4.51583790827278
C           5.84830053879329    4.44719743999867   -2.43366179435049
O           4.97843800954445    4.45534126326850   -1.59343382077200
C           7.22861265991259    3.90605447973886   -2.28889233152474
C           7.99181726977437    4.30834815795107   -3.44931950418580
C           9.35383575031245    4.44893177060201   -3.52605504776928
C          10.22980734514139    4.18675801528592   -2.45575273751961
N          10.98403048451511    4.00097702224221   -1.60971247868519
C          10.03433092268478    4.89798749673835   -4.67433821538197
N          10.64093224400096    5.22959271338150   -5.59133785535491
C           7.52586447076952    3.10894686151992   -1.22740500544786
C           8.60746677113710    2.20075160006184   -1.06381646539172
C           9.27730822323766    1.55836121211777   -2.13293139900619
C          10.41542950236811    0.72039725396320   -1.90073178717150
N          11.06553383369178    0.17641844896040   -2.94156500019451
C          10.64799606016215    0.41231472548810   -4.15255125275678
C           9.47587840545024    1.16327258276329   -4.37364360501226
N           8.81478901936985    1.70821060958638   -3.39069356148157
C          10.92672986964013    0.46061830549074   -0.60620348160730
C          10.19510899370710    1.01211815334952    0.46623927246414
C           9.04420114636214    1.85412692371842    0.23096576321421
N           8.51087468542024    2.29483949017879    1.37182523349898
S           9.35265966280468    1.70985253649921    2.60195120050588
N          10.44132578929569    0.87631496758138    1.77201819903845
C          12.13351065163209   -0.27130872873187   -0.44506431495295
C          12.76865422217733   -0.55072287511990    0.74352093909806
C          13.96549062527590   -1.27185679529555    0.58930378809539
C          14.85456878294486   -1.70177367199289    1.60359489273182
C          14.55717556712468   -1.54956274140942    3.01029224862004
C          15.42256602069917   -1.27491165550790    4.03269743445569
C          14.79059956251294   -1.25688312426035    5.29320446851142
C          13.45274778732179   -1.52931214679495    5.25947918205377
S          12.94533559100046   -1.80231270082670    3.62883515838137
C          12.48827148783529   -1.59559117927951    6.38598960967176
Cl         15.65047194136093   -0.92073110461716    6.74612954267881
C          16.03423730192149   -2.29482064584922    1.16928636297297
C          16.32633938062511   -2.53500097530268   -0.19708933748580
C          15.39438443793687   -2.18611118053001   -1.19908187346352
C          14.25145605387756   -1.51879196552847   -0.77988972599923
S          12.99680706965134   -0.89665690831447   -1.82492805834069
C          15.64226776573586   -2.52667558553028   -2.58397721587574
C          16.16615656320632   -3.69086176082469   -3.07309535204087
C          16.27870761109932   -3.68859857138977   -4.47840799387600
C          15.85843504338965   -2.53347376360077   -5.07355310039626
S          15.28338050630426   -1.42147004748745   -3.87951869872107
C          15.84022698487295   -2.19677817860624   -6.51959488251291
Cl         16.90028063609893   -5.03007711060407   -5.35676727984021
C          17.60988254300569   -3.09740024801894   -0.37849423187691
C          18.28137743378379   -3.32102989000805    0.79139008923918
S          17.33196081994620   -2.85292095193086    2.18971872906532
C          19.60026208166271   -3.82877213009487    0.97526223024742
C          20.58524819500585   -4.03644842279309    0.01759114667377
C          20.43888091621655   -3.67676378466091   -1.33138703481160
N          20.31874335941803   -3.33041391541697   -2.41846075296204
C          21.79183249858117   -4.53508101040619    0.58294714111018
C          21.68874403697926   -4.66443369258551    1.96312278300625
S          20.14620365732975   -4.23012288972240    2.58655205088216
S          23.13898839970779   -5.18106849678284    2.76308954289012
C          23.91835698471350   -5.22713792295990    1.21534693248083
C          23.09966379256212   -4.89377596437614    0.14075294055482
C          23.79906948747143   -5.00801439276025   -1.09105048930481
C          23.15001214230707   -5.01941117002408   -2.33798054145886
N          22.54620147402052   -5.17467542689859   -3.30153218116920
C          25.12788331255737   -5.36977429271632   -0.90629599609494
S          25.51687376792226   -5.69533670883157    0.76319198546322
C          26.15150661799697   -5.49314100914631   -1.89548519005444
C          27.32385300747847   -6.22696570708948   -1.62058867519882
C          28.34066871003041   -6.43789469067397   -2.61340584934497
N          29.43709102533907   -7.17281284362368   -2.30140040992102
C          29.53631550209380   -7.64732444613643   -1.09642099029858
C          28.54548166036086   -7.41841678713434   -0.10987622724576
N          27.47358288626649   -6.73287224476146   -0.38030135977249
C          28.22436606736654   -5.89268805898983   -3.88981967784759
C          27.11758434734904   -5.09795342709524   -4.15321546815089
C          26.08893796896866   -4.87665146914031   -3.15548452300888
N          25.16169915420781   -4.01767389716749   -3.58542304131251
S          25.50705448028531   -3.58435527660456   -5.08267240275356
N          26.85491238363274   -4.41772618319693   -5.28050240287374
H           7.18948314380088    5.87619302921797   -8.34671454794432
H           3.06756305962991    6.96336275685563   -8.52733949975662
H           2.77787603521243    6.34330153223392   -6.14131493044266
H           8.15575674833653    5.03008147734308   -6.26327962874683
H           3.71970324149481    5.47515555309021   -4.02802295110321
H           6.81706097280871    3.13667042312040   -0.40556723955523
H          11.21210268375077   -0.02761460557232   -4.96181644595831
H           9.06366654971542    1.29327122222919   -5.36517027609721
H          12.37229491483330   -0.21129059485787    1.68185809125498
H          16.46441359555811   -1.05057298815310    3.90075069581754
H          11.98844533520127   -2.56315581959414    6.40693394775805
H          11.72385716466881   -0.82588229773848    6.28200176748045
H          13.01287071074134   -1.44677597988842    7.32637451827509
H          16.42447104565202   -4.53866191848622   -2.46594047184401
H          16.59290697670705   -2.78235898825377   -7.04268127930769
H          16.03861519013057   -1.13793821256781   -6.66778640048817
H          14.86571750226932   -2.42493883456792   -6.95367394801835
H          18.03052985771620   -3.29981434814822   -1.34438250506267
H          30.41995391585016   -8.22920901320511   -0.87234628885921
H          28.64363013772356   -7.80168843826976    0.89599866726001
H          28.98597200125353   -6.06720775567699   -4.63020248520076
