108
 SCF done       -217.941794565694          0.000977243014
C           3.29572314464419   -5.09561564770902    9.42401258780079
C           2.42940946175183   -4.85136561004642   10.45308976403748
F           2.35456315921733   -5.72105754372868   11.47554747446058
C           1.60551845324945   -3.71762397364680   10.48944531832791
C           1.66884763250476   -2.82042311675799    9.46012698208812
C           2.54611834574323   -3.02134472121126    8.37437647506072
C           3.37338866774792   -4.18261881306225    8.35425530762354
C           4.25525847159149   -4.41052504867746    7.27256878096244
C           4.30970545050348   -3.50342465089754    6.24852873204359
C           3.49490261539499   -2.33443119948568    6.28410398156563
C           2.62824156245198   -2.09463239158944    7.31179075313939
C           3.78068392649729   -1.50306002174766    5.10132431870716
O           3.24999154584177   -0.47118019435467    4.76453268684846
C           4.93126560105312   -2.17314047180412    4.42356127936882
C           5.09041229607335   -3.48983867662287    5.01487231941666
C           5.66123030347892   -4.58557823340244    4.42644533018735
C           6.20770142714400   -4.58693804701660    3.12613190280479
N           6.62492341491999   -4.65605191753012    2.05939336209199
C           5.70039953688622   -5.86296698164581    5.02374226547943
N           5.76830022044891   -6.91546632807934    5.47577404696338
C           5.66628684754100   -1.47650296375198    3.52498014243957
C           6.97506925913083   -1.77734038393088    3.02598257008902
C           7.40511730449750   -1.35442907093327    1.75535890426805
N           8.59747774419521   -1.61381401878282    1.28354985678736
C           9.42007430495923   -2.33379810376575    2.05378663564732
N           9.14187031370513   -2.72275992784465    3.30406391019456
C           7.96017433358181   -2.43544238043440    3.78259424778595
C          10.70071908092007   -2.69391555972276    1.53588296767017
C          11.27408375513243   -2.32692503007403    0.33453988995863
C          12.54924579705644   -2.87132105772119    0.19208713526387
C          12.92454434848408   -3.66663752093247    1.29523829453937
S          11.72656365128470   -3.72743921269706    2.50355312315232
C          14.22808639741364   -4.17505081120917    1.05842932052501
C          14.68125112298223   -3.69184481660630   -0.17939014297376
C          13.64143323105317   -2.85760499609178   -0.76575347194834
C          13.69767823132781   -2.19667099893449   -1.95781973474457
C          14.83333461736355   -2.25518278854678   -2.79298573786629
N          15.76201605350714   -2.30109653806732   -3.46440990775613
C          12.63338881952281   -1.40259260502177   -2.43543426669614
N          11.77901141578888   -0.75159778526738   -2.83609452324857
C          15.96646486867531   -4.13095191171532   -0.49732126377417
C          16.48837061478142   -4.94932538876233    0.48784654341376
S          15.37788608922873   -5.17958443756252    1.82308241594761
C          17.76925396490203   -5.57024752729398    0.49471327827842
C          18.81014918255137   -5.32117501479996   -0.35561669010713
C          19.95640787132771   -6.10747063475094   -0.09550297296338
C          21.18979472272396   -6.09899628393937   -0.78035676357455
C          21.43140723335746   -5.26233495592842   -1.93779590908482
C          22.57847033631032   -4.59698137596008   -2.26664723836709
C          22.47623849056138   -3.90158458428579   -3.49052295931707
C          21.27069903563051   -4.03312719891476   -4.11736015872313
S          20.22245838038559   -5.03540288356126   -3.17511574544568
C          20.81980057940405   -3.45062615525712   -5.40547680879697
Cl         23.77399313907171   -2.96497374576776   -4.12420540517158
C          22.17480162323681   -6.94929877486189   -0.28780618699969
C          21.97575231693042   -7.81823969278539    0.81345667578010
C          20.73232067210798   -7.84911354736222    1.47626695703508
C          19.76431508471718   -6.96576845277909    1.01634395348052
S          18.16394255543319   -6.79560899518341    1.68002778676855
C          20.48708164578829   -8.77348890461032    2.56505586385220
C          20.84566707751337  -10.08818090584962    2.64669414168028
C          20.44403843861691  -10.68736744097506    3.86049883285420
C          19.78569125141617   -9.85002147398527    4.71293644705891
S          19.64395918864477   -8.27548903433045    4.00652357051156
C          19.23716314473140  -10.13661788366085    6.06222148850986
Cl         20.76683189929759  -12.34197342598851    4.21698419866253
C          23.13798526424674   -8.56728229132293    1.11318933670688
C          24.18148836186496   -8.32196120999408    0.26760417102168
S          23.77900732492636   -7.12610478482999   -0.94718123721236
C          25.47682062964687   -8.90950991727119    0.29291633172046
C          26.54569844102756   -8.63507691663421   -0.53410721186540
C          27.66345927569668   -9.41233346910968   -0.21732584861828
C          27.43522498457449  -10.28294920512136    0.85493030129351
S          25.85368082897596  -10.14882348968026    1.48039732193766
C          28.62617470059044  -11.02915333608808    1.09367794048905
C          29.59798890489093  -10.62467463574017    0.17248568898861
C          29.03329747938470   -9.59469452511627   -0.68145949008191
C          29.65062079576143   -8.93044233171242   -1.70015379521067
C          30.98958904563051   -9.18742049868585   -2.06262610458737
N          32.07753993717218   -9.39340164742386   -2.36074660862764
C          28.99356955701791   -7.93868658985699   -2.45879177516851
N          28.46542175261956   -7.13116062134977   -3.07819208601184
C          30.81359281856072  -11.31661321997842    0.33530065915588
C          30.73926909811651  -12.21419498254417    1.35656634887277
S          29.19761408701359  -12.24404835570354    2.14694835785093
H           3.91205357447826   -5.98100763198069    9.42734196073009
H           0.94137467263437   -3.57825884601872   11.32759609049489
H           1.04460257517363   -1.93967000786033    9.46583940640645
H           4.87581924581083   -5.29260549556475    7.28647823420672
H           2.01455516541919   -1.20634175978891    7.31491547939619
H           5.22932531374866   -0.53938895740817    3.19312223524701
H           6.74159809995252   -0.80575250902285    1.09939930598808
H           7.79017902386083   -2.69380577483818    4.82135568071057
H          10.76828812250927   -1.69462463876380   -0.37176052780875
H          16.49654349221988   -3.88618605785210   -1.39862267542864
H          18.76080839556126   -4.57912017707059   -1.12914553359815
H          23.45636138709067   -4.56210935764825   -1.64899796764285
H          21.55323319147396   -2.72926674292166   -5.75704654118155
H          19.85737490276878   -2.95545610350325   -5.28626239169446
H          20.70486020691664   -4.22930006961994   -6.15983160911546
H          21.33556520337440  -10.62940733728223    1.85858539668513
H          19.33288648645763  -11.19754302813464    6.27943053654443
H          18.18677500007227   -9.85446917604280    6.11607959462518
H          19.77550707232844   -9.57204343705688    6.82347251739569
H          23.21135975302668   -9.24790133396274    1.94184433090364
H          26.49675998990571   -7.90427050664130   -1.32121517187883
H          31.69299042635781  -11.16476678106384   -0.26329573085420
H          31.50566413761397  -12.87634145164262    1.70640814638593
