102
 SCF done       -216.326817723085          0.000486767112
C          20.95532791428348   -2.99695233340904    1.37293523463399
C          22.21741028703630   -3.25272759150347    0.91318846864754
F          22.94629563096477   -4.22536777592646    1.48690130354487
C          22.79149343410982   -2.53510775165048   -0.14543328139917
C          22.06574521779747   -1.54226046483408   -0.74226744615166
C          20.75881761267735   -1.23683848262378   -0.30938916948931
C          20.19338082873108   -1.97737828714253    0.77034040487207
C          18.88706084795748   -1.68504185026903    1.22665360872579
C          18.17261106975813   -0.69000294483887    0.61716834914553
C          18.73593857799409    0.03763953353238   -0.47218598339757
C          19.99820138552437   -0.21842221187604   -0.92587032609921
C          17.75179883842291    1.01688750713972   -0.96949315118912
O          17.89114697607735    1.84897481865191   -1.83431559762285
C          16.49753108917247    0.71509439731171   -0.21659563129780
C          16.84277168749383   -0.15714467021814    0.88734686256296
C          16.17754801074401   -0.23187419823899    2.08160201023163
C          15.04005401459553    0.55036877206402    2.36340136355218
N          14.14611516181599    1.22080587020719    2.62624852264619
C          16.61780178226935   -1.00411636588331    3.17568697664765
N          16.93924134064484   -1.62497424662530    4.08537646100286
C          15.30467854576999    1.15211059573070   -0.69231838831862
C          14.00010389326767    0.65396217330463   -0.42935977822007
C          12.82577368986004    1.31084669073742   -0.70389383698296
C          11.67066882756620    0.54477793782472   -0.45771860542820
C          10.29822620200320    0.89151700297233   -0.56551761095365
C           9.39316060640076   -0.18046567275367   -0.38515356161686
C           9.87998229526023   -1.40820953594546    0.12831342504350
N          11.14702094984875   -1.68841188553439    0.36115907756379
C          12.00538631300545   -0.75302892659836    0.01592008819447
S          13.71482879569820   -0.98311580725723    0.15072736943558
S           8.62215349836139   -2.57685417790036    0.41348951494095
C           7.47623313933871   -1.48823409995478   -0.30924166634800
C           8.00587715224953   -0.29706419479641   -0.68935698957269
F           7.31471433323865    0.61426894674863   -1.39148204629012
F           6.21211685072521   -1.86618349419501   -0.46535537073554
C           9.92958689150313    2.25365883321750   -0.75966717176424
C           8.85524346860609    2.91102904978151   -0.22648304488657
C           8.59626234691282    4.30406934131582   -0.38073213682471
C           7.51203902294261    4.75515576449024    0.30034808963952
C           6.84161371750210    3.74703409157876    1.03434817976233
S           7.66687453998362    2.21739658700515    0.85807606997155
C           5.66309810093751    3.83200391498147    1.74340112738504
C           4.81075639860476    4.94650124031801    1.92961483560175
C           3.66446834418231    4.65346149217730    2.59826903674146
C           3.54108468092339    3.29361609297664    2.99751067089184
S           4.97100729626731    2.41210461485717    2.49376859701620
C           2.46644835824154    2.75637867305248    3.65596662374572
C           2.31611384150060    1.43401836050637    4.12111733820097
C           3.19943103966068    0.37636024142516    4.05994191679555
C           2.77168511896554   -0.76094415929300    4.76430891045616
C           3.46013535615698   -1.96340500663928    5.04217452523628
C           2.71731179609494   -2.94817269661959    5.72114182146227
C           1.40005741360402   -2.64217743749861    6.14806133359342
N           0.78584291837807   -1.49286896444029    5.96360753304383
C           1.46053373284940   -0.58730723744347    5.29614709032594
S           0.85290833216141    1.00649984468250    5.00364172304932
S           0.65280245185567   -3.94417035279866    7.02666578565792
C           2.10431291965111   -4.88577941194280    6.84209818796577
C           3.09099161127602   -4.25198231314269    6.15831978207173
F           4.28398607039803   -4.80733296172649    5.91144637079321
F           2.16294838461795   -6.10970095290217    7.34988366868791
C           4.83891759540214   -2.18459974975227    4.69324089259000
C           5.87461634891628   -1.30933107242509    4.69169975305654
C           7.15714756754501   -1.69179587411192    4.02070471737509
O           7.45118297194250   -2.78569530439023    3.60320313535301
C           7.92568279754521   -0.43862477549894    3.90518174490167
C           9.15517026502296   -0.23065532320304    3.34862704111343
C           9.66890065730451    1.08342465206309    3.28476674160624
C           8.88588689083660    2.16515394320497    3.78483057922591
C           9.35766117074762    3.48235676959494    3.62446818111583
C          10.55702631148713    3.69270872097118    3.00260726219944
C          11.36812787729286    2.64099973133425    2.55786899875215
C          10.92570829512377    1.35686789360736    2.71048179067231
F          10.98479968420230    4.95471529035587    2.80696743514543
C           7.64819396479494    1.91276638600821    4.41772273690188
C           7.17994195982250    0.62757189749811    4.48695008505994
C           5.99263929043341    0.07098738829825    5.12179611202365
C           5.22971641874370    0.70480665269279    6.06842973584612
C           4.33340335372185    0.03401797936725    6.92437496664510
N           3.64307816946945   -0.47901386910534    7.68433463156479
C           5.29652565773887    2.08738249423255    6.33108883218071
N           5.25825273990736    3.21841508101082    6.52452477232266
H          20.54657270741835   -3.56721787035270    2.19231111183838
H          23.79129082874098   -2.78204980678325   -0.46548003633948
H          22.48672879169986   -0.97618674612716   -1.55943520241454
H          18.47642229571379   -2.26390166889660    2.03900670645035
H          20.41180374571789    0.34772032388008   -1.74698409511281
H          15.36271745434634    1.92764674917001   -1.45056567404259
H          12.81646009762605    2.32025024291437   -1.07408820846165
H          10.64515297334323    2.87326881215776   -1.28275336467101
H           9.22400187945023    4.91934439892632   -1.00038002096831
H           7.16837755056974    5.77368352656345    0.29023573086530
H           5.06316104302395    5.92205864727904    1.55525724426349
H           2.89177993339515    5.36678468696690    2.82288754451321
H           1.64804958551416    3.42974412929354    3.87186808969845
H           4.11112690002062    0.40354517458543    3.49477775200952
H           5.10024981694426   -3.19076557770138    4.38025865292140
H           9.73002038783533   -1.05700203103318    2.95788504537786
H           8.77183416230351    4.31509991571391    3.98220035601627
H          12.33080812036025    2.85346025526406    2.12305348914590
H          11.54661307364557    0.53283895869542    2.39625236599135
H           7.09338771064369    2.74451505353124    4.82168490085699
