160
 SCF done       -276.657712341893          0.000996299804
C          -0.29964005113678    1.78716897297373    5.73185948252242
C          -1.34138192707325    2.65692599546961    5.89546425121776
F          -1.91597315435080    2.78191872775211    7.10528728083900
C          -1.84283256885635    3.43570436629431    4.84321568727616
C          -1.27118665462082    3.32386055644123    3.60652984167598
C          -0.19350494528169    2.44267555252447    3.38108586585680
C           0.30022017640431    1.65758347699447    4.46388679605371
C           1.37345138359415    0.75978929728295    4.26106818214607
C           1.93416615083069    0.65325422851597    3.01653193742611
C           1.44896781447215    1.45449826855499    1.94253151340196
C           0.40995533496809    2.32449654020406    2.10931361010692
C           2.24913061305965    1.18546379154630    0.73221277028169
O           2.09540816539363    1.63750822841513   -0.37848021761395
C           3.34192241400014    0.27534565472815    1.18094444814557
C           3.00937201360140   -0.19700594445480    2.51379256883781
C           3.43344974891949   -1.35828770295261    3.10070669852988
C           4.28980685749258   -2.30195546241066    2.49513639635352
N           4.92622932173728   -3.14890032926091    2.05306519091412
C           2.99168364359451   -1.80040502496128    4.36544715893757
N           2.68047223620740   -2.19638278009245    5.39682288387108
C           4.44018674568906    0.10199653799086    0.40890587113950
C           5.71284850910182   -0.44432451441108    0.80411997328479
C           6.46482818953814   -1.19706593318000   -0.10341378422601
C           7.63904691115714   -1.79710814059396    0.29082796847588
C           8.14029737515370   -1.60898957469327    1.58028552920248
C           7.42950233687326   -0.79061654803806    2.46188347559485
C           6.23112119242959   -0.23146227222619    2.08732018015731
C           9.34226472706257   -2.32115210423277    2.02700990905145
C           9.40153905769984   -3.74082330005973    1.64452751960600
C           8.25362670584771   -4.52986720932516    1.71355865928847
C           8.29957136408759   -5.86128280838967    1.34497334283278
C           9.48279961951830   -6.41986018676102    0.89074125231348
C          10.62245329617736   -5.63703981409811    0.79964546733410
C          10.58452604053885   -4.30738699448715    1.17260201135371
C          10.30319931135034   -1.71524318451373    2.76553108532183
C          11.38173702350136   -2.45414707612476    3.43759911748052
C          12.68710750466909   -1.96597435690478    3.40923442231859
C          13.70460949075397   -2.64635594838767    4.05108899907498
C          13.43177327263062   -3.81424782278761    4.74363560770214
C          12.13344126832471   -4.29574050842177    4.79542088908402
C          11.11486510292725   -3.62327963238644    4.14875648726934
C          10.33478195862184   -0.25555576029434    2.93284309404710
C          10.52971029020884    0.31312102195284    4.19161528247632
C          10.54988879743652    1.68157098273620    4.34841684556226
C          10.41836046856329    2.52935761481202    3.24586968338772
C          10.25282713035384    1.95844571162064    1.98042491296714
C          10.20163550850475    0.59044619243185    1.83118499246469
C          10.45228941973433    3.96563857839450    3.40438436706903
C          10.83028264911962    4.91149171875974    2.48109492405602
C          10.72973446114923    6.21490982056177    2.98577124416649
C          10.25210253160752    6.25192676830248    4.30041378376351
S           9.95780045385988    4.69257329833130    4.92559631726840
C          10.16917909743898    7.61298748541957    4.71436181481337
C          10.61424723112466    8.42499506889064    3.66536308710064
C          10.98271977163405    7.57688109532724    2.54256484813655
C          11.46333321088657    7.97539288783472    1.32914629073751
C          11.68239127250219    9.33330551064793    1.01875600996811
N          11.86456799188475   10.43695224685479    0.76531502732595
C          11.77151881803504    7.05572436899854    0.30561142820166
N          12.02100839219059    6.31217523804761   -0.53135165721690
C          10.55912421257399    9.79032908789442    3.97436919963931
C          10.06055772225411   10.01934730060788    5.23551463728424
S           9.66225752001968    8.52218096239329    6.06502304648583
C           9.83205329310430   11.28895714601854    5.88584626561470
C           8.88732722941942   11.40843741781288    6.90851699017961
C           8.64195407696965   12.62581001809107    7.50358010735840
C           9.35901992569326   13.76108437026253    7.12442296659973
C          10.31012907399625   13.64133725585567    6.11020997279076
C          10.53857682186390   12.43080228473643    5.49476355838632
C           9.08124445429938   15.05974929599774    7.75173391283035
C           7.65723466461454   15.40782545886236    7.87154380929209
C           6.78627302862038   15.16022293688412    6.81170296108537
C           5.44425869652695   15.47280361483415    6.91872022451011
C           4.94910025252222   16.02153598281005    8.08996969759058
C           5.80330336649323   16.25128527924338    9.15654337147678
C           7.14685684566165   15.94805502969708    9.05095449027327
C          10.07280519273763   15.88024824352021    8.17508143581626
C           9.82748495848378   17.26936313316430    8.59791305617303
C          10.44904179690639   17.76909295103178    9.74203636466809
C          10.23923066013726   19.07746740217118   10.13553044511961
C           9.41803280161677   19.90711376439583    9.38986355201159
C           8.81064892330215   19.42319163088330    8.24240598954434
C           9.01301167888960   18.11492429600040    7.84691352553250
C          11.46824533227719   15.44502238756567    8.27883489468011
C          12.50242346984225   16.31778328313014    7.92798175008375
C          13.81609958553852   15.97647867237091    8.14587237827010
C          14.14659648846706   14.73960083046851    8.71278718910120
C          13.11526681460897   13.83709228090860    8.99275416559279
C          11.80050279629744   14.19406239137004    8.80351672509902
C          15.50966757778650   14.37816153990152    9.00170058242098
C          16.51685267958254   15.18495647158636    9.40990548205532
C          17.92763093970286   14.71071084052748    9.31899692549369
O          18.29617146853419   13.57581172457012    9.12279913313897
C          18.75427402686719   15.92340679639942    9.46305028440813
C          20.10723324703362   16.05865123678294    9.33968547409605
C          20.68966090899589   17.33580267414370    9.49615346015099
C          19.85154255535835   18.45615709511376    9.76992253679095
C          20.43811197107745   19.72834280375230    9.91776935158112
C          21.79365239182669   19.85995027479185    9.80041326418777
C          22.63470044083425   18.77056904072490    9.53373753061224
C          22.08205713711430   17.52920454419289    9.38491733621173
F          22.35587944349919   21.07357389382324    9.94328571108657
C          18.45361060498405   18.28601046868609    9.89708225638542
C          17.91295307667220   17.03603711983399    9.75510877507014
C          16.53710749701640   16.56091419457038    9.87456996774061
C          15.53270578781562   17.21952484021830   10.53098771277466
C          14.28620681728806   16.65584838139099   10.87494455220313
N          13.27920980130141   16.25692796920587   11.25509774605288
C          15.65451762478709   18.53279951318761   11.03170594446611
N          15.69120193527644   19.60467155046054   11.44134431685607
H           0.05805205016915    1.20015356302745    6.56335642719527
H          -2.66731667891839    4.10470063479340    5.03228795936945
H          -1.64015058760704    3.91332354588033    2.78071346006035
H           1.73294900625032    0.18445008483908    5.09956214585076
H           0.05271942431029    2.91684007310666    1.28026209058082
H           4.35600609479905    0.45929490763651   -0.61274723248685
H           6.08498586193065   -1.35228392143171   -1.10233301730669
H           8.18715826930914   -2.41753387911948   -0.40306104252613
H           7.80758717739217   -0.62962246650807    3.46028015007457
H           5.69085854194560    0.39625295535478    2.78221261694576
H           7.32705589912452   -4.09942293149685    2.06499686923466
H           7.40566249351290   -6.46343515086912    1.41088611106699
H           9.51645374893662   -7.46006796200119    0.60216604261371
H          11.54443876697720   -6.06391920746633    0.43265187518254
H          11.47130410589079   -3.69645207876276    1.08698156358053
H          12.90187183212535   -1.05676308628406    2.86521538690323
H          14.71402072247638   -2.26360982421012    4.01181096363290
H          14.22706530442680   -4.34479637993020    5.24573442681452
H          11.91363901812383   -5.19918601490154    5.34493999228590
H          10.10207022551686   -3.99439024889438    4.20091481137179
H          10.64553099839590   -0.33083475112647    5.05157061450777
H          10.68473088889501    2.10929386953600    5.33196179542415
H          10.14607693919698    2.59590221746009    1.11619058864323
H          10.07016314931438    0.16279992622805    0.84820098061528
H          11.18524599524816    4.66625551075552    1.49701086995582
H          10.84283694115358   10.57684779580659    3.29963700323980
H           8.33143358243639   10.53547557160913    7.22051551430343
H           7.89804989278102   12.70532397305285    8.28314300226551
H          10.86113607255489   14.51530824209205    5.79539938065010
H          11.27840498601628   12.36047340684029    4.71237205779549
H           7.17254964258530   14.73601134645801    5.89536949800629
H           4.78200751941297   15.28684602340991    6.08572681269577
H           3.90028577673972   16.26483929987215    8.17319080185685
H           5.41940249901564   16.66749128293388   10.07626092508188
H           7.80782336877140   16.11715788729443    9.88791835087555
H          11.09018076851720   17.12536673064443   10.32770778610132
H          10.72177240734578   19.45043841917216   11.02683259191833
H           9.25624663372617   20.92938444771163    9.69806405362268
H           8.17948298860403   20.06974517057003    7.65036567080325
H           8.54989857728515   17.74513967311320    6.94368724134474
H          12.26039215733888   17.27504318467498    7.48920213178651
H          14.60481988151000   16.65729259091351    7.85752115943666
H          13.35832686332271   12.87612890441216    9.42136388650593
H          11.01442609766321   13.51215313492630    9.08951057778921
H          15.78276342438913   13.33976419782901    8.83983320536597
H          20.72621673325007   15.20021837196652    9.12573066401433
H          19.82171716617029   20.58853736760518   10.12756700694670
H          23.69731249121382   18.93556691488276    9.45205110879098
H          22.70909406444544   16.67477986295420    9.17904012506037
H          17.84277952699362   19.15241425878878   10.09585933871086
