106
 SCF done       -202.170656145680          0.000741691096
C          10.16061328962674    1.65795249795434    8.72704172253906
C          10.71555925564902    2.23951133373926    9.83221474142968
F          10.96962948915144    1.48859162529172   10.92236032196695
C          11.03940609645293    3.60231418013916    9.88369148250352
C          10.81830621370276    4.37956272449724    8.78078269826847
C          10.28161854039877    3.82485842942834    7.60040678279437
C           9.92635998004678    2.44352528200173    7.58145263890972
C           9.36711853680522    1.86497390633078    6.41798981606613
C           9.22606478347741    2.63451133034591    5.29698874358146
C           9.62807037572150    4.00285039147928    5.30147046206591
C          10.12178188532858    4.59760803167295    6.42744668131633
C           9.43841507662733    4.57038065258043    3.95322171816267
O           9.62412616528718    5.70850221514676    3.58606199977683
C           9.02486598369789    3.41793815893555    3.10452900798791
C           8.69229332565641    2.31444458977883    3.97819158134279
C           7.79478545629808    1.31680774220120    3.70145210184277
C           7.07463399652819    1.24808146617939    2.49212288219681
N           6.43049812097427    1.20084025311611    1.54202903028833
C           7.37771301289315    0.34268687391878    4.63308762232466
N           6.98225216162407   -0.46967017261019    5.34017622091501
C           9.06981330447701    3.51505768077790    1.74979634191002
C           9.08101898165264    2.48866905439170    0.77876472887291
C           8.66308898959815    2.64807043609205   -0.53388689705122
O           8.13040347536456    3.79592347171496   -1.01242216038276
C           7.39697656361810    3.58399904680766   -2.20497116217111
C           8.18290602553612    2.71369477100679   -3.19483461444162
C           9.49564918501407    3.37520759837640   -3.60628463734377
O           8.41901548416988    1.43093304526771   -2.61833942031007
C           8.78775811065589    1.48604797494593   -1.31405687554860
C           9.34506799050293    0.41346200150635   -0.63372565726492
S           9.68669052373450    0.86559397439841    1.01583294870606
C           9.62403639874603   -0.87629261768735   -1.16613540635208
C          10.26311801139342   -1.86868146675676   -0.45302328435924
C          10.56589700727169   -3.13427299079059   -0.95202184727841
C          10.17753422118213   -3.51100143234802   -2.31386367261612
C           9.53725622539597   -2.69707423069438   -3.18115667329225
S           9.08437751029910   -1.08550737684043   -2.82704255272826
C          10.61950454633592   -4.84829228848674   -2.48093123021818
C          11.24931975670795   -5.29630790679741   -1.31812005422068
C          11.72719655004113   -6.61963070974179   -1.47719721817237
C          11.44604059064675   -7.11747202256703   -2.70955109472405
S          10.59772619085202   -6.01702328954008   -3.73795415856356
C          11.22291984445689   -4.22969229776675   -0.34132937957382
C          11.76841339729176   -4.25090129075426    0.95956647991126
C          12.30912411182758   -5.35768370285259    1.54266113186603
C          12.91674654503260   -5.43474357590699    2.80799680880532
C          13.44552806396877   -6.60186402886164    3.35480785633120
O          13.37693977821202   -7.81850930623259    2.73970272086411
C          13.60856437490637   -8.86823514880579    3.66021250266852
C          14.85437386617361   -8.59758428918360    4.51601628675605
C          16.11099894508939   -8.48823709212708    3.65528118244157
O          14.66521989029030   -7.41252339089588    5.28478777673582
C          14.05962247563085   -6.42160995964775    4.59726174070487
C          13.97197548951715   -5.11377443747797    5.08104169842034
S          13.15562405895927   -4.10260052697290    3.90350913035889
C          14.56274220229285   -4.66582556441826    6.26835023103823
C          14.37733470168587   -3.47231259240003    6.91316548276473
C          15.41146895283669   -2.91976648764411    7.81621984439228
O          16.37820433641306   -3.49529792514823    8.26580322696256
C          15.04613205238646   -1.49489333312877    7.98942115148299
C          15.73101784817361   -0.50064141993872    8.62337296283316
C          15.22531050250165    0.81951756962978    8.58137308522687
C          14.02218372212256    1.08453930740313    7.86590695849717
C          13.56233402664580    2.41160081626620    7.77301700749018
C          14.25975095464786    3.40927628740919    8.39410682234733
C          15.42727069531861    3.16626011974240    9.12748849054133
C          15.89917336863932    1.88525456276683    9.21065926995716
F          13.82016585603164    4.68112169376465    8.30288456118737
C          13.30819919684811    0.02584818313814    7.25558782361648
C          13.81013401189461   -1.24346282104359    7.32609931912985
C          13.30808991753424   -2.51522621182722    6.81241946643516
C          11.98769241059795   -2.81343022675960    6.57721650052336
C          11.51788935380259   -4.12870082921994    6.39113389098999
N          11.10256955742737   -5.19468288795265    6.29132478930689
C          10.96450391686923   -1.85565316327067    6.64055532675649
N          10.10611444183997   -1.09391206309134    6.68895439993508
H           9.91436115244060    0.60788267970264    8.71481948942294
H          11.46355140673275    4.00791866907145   10.78853833112779
H          11.07526842782733    5.42757413236429    8.79248111979378
H           9.10530798450065    0.81957269769847    6.43179025032044
H          10.40641340723737    5.63904231348215    6.42165109219965
H           9.14697443947006    4.52117596750204    1.34791643479406
H           7.20410963877503    4.57259551912717   -2.62185078396134
H           6.44581413916539    3.09160874418903   -1.96417445368908
H           7.56622892845492    2.51027615085524   -4.07566114215641
H          10.08118443975461    3.64317650244924   -2.72914955404052
H           9.29094365586214    4.27518009053719   -4.17878541993817
H          10.07558569837761    2.68880107721895   -4.21811187639603
H          10.54252910351245   -1.62318428896113    0.56367533270487
H           9.27039635851452   -3.01549420363935   -4.17668215886868
H          12.26000228998338   -7.19632758280514   -0.74417235817267
H          11.69047957324903   -8.08897735946397   -3.09265031942637
H          11.75817497288785   -3.32621339152142    1.52265119186277
H          12.28750403458186   -6.30283225693430    1.02450966471269
H          13.73610622776060   -9.77295622474883    3.06536821338192
H          12.73673043760826   -8.97848389980346    4.31893049861326
H          14.96959825898345   -9.39487337266981    5.25700026733419
H          15.97253514047405   -7.74642748079091    2.87116349135909
H          16.32890195936546   -9.44854957336034    3.19675483010570
H          16.95361179233504   -8.19023411498669    4.27388197909247
H          15.32456949477560   -5.32232809637085    6.67661047326731
H          16.65441817536840   -0.71252382908458    9.14118097402255
H          12.66862615361829    2.63624470170031    7.21307923088313
H          15.93247475913974    3.99221624510699    9.60246484233506
H          16.80379210227265    1.67378810776369    9.76071934907889
H          12.39316559043917    0.25006387413923    6.72928080384117
