96
 SCF done       -178.126207415435          0.000523956863
C          14.20924505784094    6.57283573667061   -8.91092764866790
C          14.35881734295565    7.30088648021789  -10.05878693824282
F          15.34819529568458    8.20461991622813  -10.14528188304603
C          13.51030532689493    7.14415552679002  -11.16416573367742
C          12.49492536700848    6.23154842788565  -11.09600123390628
C          12.29263815303779    5.45605769167345   -9.93555578376100
C          13.16484391639199    5.63223930193396   -8.82091066826333
C          12.97114286938836    4.87965223332272   -7.63966380948850
C          11.93639206015536    3.98489635560507   -7.57569038849039
C          11.08346342285080    3.79461473751796   -8.70224856585248
C          11.24742729465028    4.50990420075365   -9.85427385859972
C          10.08939559692941    2.75340526990453   -8.39246213692357
O           9.17717196396336    2.35670540259555   -9.07813425314492
C          10.47812815825568    2.22829926518761   -7.04710193365762
C          11.47195170793498    3.12868959553941   -6.48914888827226
C          11.75010927172986    3.31945344410659   -5.16326449690461
C          11.11565307882044    2.63445791855198   -4.10652503371882
N          10.60756318329972    2.15024988790680   -3.19820255200919
C          12.64084786906082    4.30537199493691   -4.68564329141278
N          13.35601467460976    5.08587374840479   -4.24328671200087
C           9.96786565609612    1.05217928893969   -6.61784219374756
C          10.43269721562332    0.23346205860444   -5.53397308855566
C           9.55586195467464   -0.51389490655558   -4.72902173394904
N           9.96455979163167   -1.25621247512849   -3.73160382287412
C          11.27721543573139   -1.28138242092726   -3.48206441771543
N          12.20443327895347   -0.67343084336847   -4.23028991681327
C          11.79356462106121    0.05477881482965   -5.23573633806731
C          11.74637519263545   -2.03418936296737   -2.36094173778189
C          11.02771904624632   -2.74222884214911   -1.42255327105533
C          11.83800318477883   -3.36069924452757   -0.47323463473319
C          13.18675486862339   -3.12948615009641   -0.67337615670106
S          13.44628846617131   -2.11938570709118   -2.07028534871650
C          14.29686667571177   -3.62143186550985    0.07839108144548
C          15.58446956366850   -3.25326001870070   -0.22886785833816
C          16.73180623720076   -3.70938251964552    0.41250007297136
C          16.62720013322323   -4.57612629310221    1.59399808774750
C          15.45829136925489   -5.05768487441263    2.07515398289800
S          13.92354759265427   -4.73212284406129    1.38202010324751
C          17.95877885203682   -4.74126313956628    2.06470027382245
C          18.83672041562695   -4.03270998844477    1.24348093418384
C          20.17942156149608   -4.15560136998743    1.65954470376059
C          20.28388360078145   -4.93730110003698    2.76642664842024
S          18.77152739619801   -5.55387217492327    3.34226997808211
C          18.09054793135899   -3.39993820824141    0.18579746188471
C          18.69260326018173   -2.61545394457718   -0.81993579197166
C          18.11712795375678   -2.22527003195558   -1.99508223438847
C          18.68850927107678   -1.33605018887856   -2.92521540714641
C          19.94727077872511   -0.77814733154023   -3.01214226820052
C          19.98735141594808    0.03397937439923   -4.20091839289672
C          21.03039191985527    0.77204609404369   -4.69786191250461
C          22.28202696697965    0.85751028117682   -4.06433887340782
N          23.32165647966188    0.96067627784190   -3.58985585874225
C          20.88368587587433    1.49118001412106   -5.90008677297241
N          20.76351315819268    2.06979493712075   -6.88357050059858
O          18.81062899634506   -0.01780503008452   -4.84370457279137
C          17.88683471866714   -0.83051378513861   -4.10549574054693
C          16.70280309037593    0.05416014616829   -3.73801168488452
C          16.06598638977881    0.72450664934655   -4.77606119603499
C          14.98692784434547    1.54649775601745   -4.51362682184203
C          14.52087310712890    1.69284103494219   -3.21807135772139
C          15.16002244861207    1.03557101324220   -2.18369670539661
C          16.25716832648583    0.22961673831788   -2.43707917795175
C          17.44021069386634   -2.01858755830331   -4.94714327805307
C          18.34486375842468   -2.63460179950336   -5.80125683295810
C          17.96541419300498   -3.74707540522344   -6.53054286393201
C          16.68607269156235   -4.25972552148286   -6.40103132866770
C          15.78428667260424   -3.64977224528437   -5.54589211921255
C          16.15582699222038   -2.53180359338029   -4.82010226252066
C          21.02586127351753   -0.98618438011927   -2.14422785413172
N          21.88393496361402   -1.19045167046960   -1.40906825445384
H          14.87968350827854    6.72132617425446   -8.07893297245535
H          13.67762862225978    7.74650996131062  -12.04292764712948
H          11.82943912509828    6.09299705049080  -11.93464905138687
H          13.65165706151580    5.02677026608454   -6.81575735436361
H          10.58443249278827    4.35730779955069  -10.69263037633412
H           9.14087806997691    0.65910061706991   -7.20159395284528
H           8.48659124226545   -0.47977771455591   -4.89302178657077
H          12.56697402838444    0.48683457232190   -5.85925687609669
H           9.95499000576654   -2.79385864910724   -1.44591944307228
H          11.46367048521319   -3.95898094280754    0.33859018451541
H          15.67877402204348   -2.53071931418213   -1.02497604168906
H          15.41070796060204   -5.69863547704587    2.94132575693802
H          21.01956506683927   -3.69275360332587    1.17480307714119
H          21.17513097924809   -5.20181121045320    3.30095722276821
H          19.70920464582715   -2.30584474918275   -0.61766344401586
H          17.14770182765953   -2.60964341317034   -2.27515911141203
H          16.43271554781940    0.60301656969242   -5.78431747610572
H          14.51676652922478    2.08151692743897   -5.32648290634040
H          13.67337266444687    2.32630285973043   -3.00580331535146
H          14.81187117919790    1.15672870985649   -1.16913204507716
H          16.76045980396684   -0.25245797049972   -1.61185945725877
H          19.34490963498231   -2.24031457320731   -5.90802914974205
H          18.67384986554587   -4.21519055194029   -7.19721424039263
H          16.39276266669028   -5.13135784770881   -6.96670929926023
H          14.78309751080167   -4.04089085644740   -5.44168482375182
H          15.43932055906694   -2.05367541336777   -4.16804240669888
