102
 SCF done       -191.599111048825          0.000915395743
C          -0.11730201178120   -6.44045916930512    0.36382869827174
C          -1.31202126946449   -6.51280349379205    1.02428829657083
F          -1.90139152570033   -7.71123026815869    1.19728605200597
C          -1.95724567139576   -5.37968644348232    1.53670089617400
C          -1.37151820303332   -4.15498037913013    1.37226250930434
C          -0.13855654794553   -4.02258856624630    0.70199587980919
C           0.50012285620570   -5.18727560943818    0.18542164616462
C           1.73573567377010   -5.07915565659903   -0.49514238418672
C           2.31619568728575   -3.84888506426002   -0.64003125856329
C           1.67984372417290   -2.68943410496101   -0.10951368327785
C           0.48112866625361   -2.76244696634383    0.53790596734640
C           2.53335150998621   -1.50984922372519   -0.36162464179549
O           2.29512594001820   -0.35205158430388   -0.10164897481027
C           3.78668698478061   -2.05715077863242   -0.94959322331205
C           3.55241966588854   -3.43562822632520   -1.29525809272250
C           4.24950784078949   -4.17020118675537   -2.22116019305923
C           5.25015244722413   -3.62592349379313   -3.05005478081393
N           6.04813578744947   -3.22439078233997   -3.77173596581217
C           4.04698439764024   -5.54079423621072   -2.45743243904204
N           3.98689289526643   -6.67470707320114   -2.63667292953075
C           4.91145386796666   -1.28467091095033   -0.94174247252860
C           6.28121436059808   -1.64600436218099   -1.05251474642930
C           7.24719840221935   -0.66482582698154   -1.31127469070456
C           8.59432487558102   -0.94116343972088   -1.43314671242111
C           9.13463085956483   -2.23329736128798   -1.32994531589575
C           8.18948593810845   -3.24336972092776   -1.01546845096266
C           6.80281013519515   -2.94688425743677   -0.84815696847328
N           6.19942240822379   -4.07668659571100   -0.45415700374543
N           7.15878043167417   -4.96168841716086   -0.40928976892334
N           8.34970631737852   -4.54252331915012   -0.72570256428781
C           6.90345194383286   -6.32729715568357   -0.06916330208075
C          10.53667307699247   -2.41130629317377   -1.44064028004168
C          11.25106948396046   -3.55798150851616   -1.67594817061498
C          10.83864617023281   -4.83827662875185   -2.12153009263758
C          11.85715144109927   -5.72220738314957   -2.29769366045858
C          13.13543933558350   -5.20581816120915   -1.97911376044925
S          13.00310691464786   -3.53072860906553   -1.50658429227963
C          14.33981594253253   -5.88319008765611   -1.97838763293268
C          14.57997510126929   -7.22292375884604   -2.36000149672783
C          15.87134023097155   -7.61602320395962   -2.19592058276840
C          16.72992837065711   -6.62068925466840   -1.65523037232652
S          15.82035535372504   -5.13967258301896   -1.42039149723615
C          18.04057406266411   -6.84053982270252   -1.31710216080508
C          18.96781657006405   -5.98544573936735   -0.67853811491777
C          18.79609250064783   -4.62677507445069   -0.38207316433359
C          19.72630489355603   -3.89429378838208    0.33224884494279
C          20.89908026297710   -4.43963688771822    0.86999518880529
C          21.14232356563722   -5.79103241125407    0.52190689981096
C          20.20122655916713   -6.53646561400735   -0.24341095367818
N          20.70228024594958   -7.76799123639705   -0.40663314112533
N          21.85110423895861   -7.73499405814528    0.20733207075404
N          22.17843318004488   -6.60347823419130    0.77495847537055
C          22.69675252976733   -8.88510964032281    0.29373935824332
C          21.75764620323449   -3.63645663049768    1.66995597710086
C          22.71383119552420   -4.00275242555325    2.57068632078317
C          23.75260581063032   -3.01544176109013    2.97019189055296
O          23.73941417227272   -1.82201235056248    2.76708831293807
C          24.81700222842939   -3.81228574758705    3.61400185051806
C          26.03574293391330   -3.40707240648581    4.07455290734753
C          26.90937103135519   -4.36032098615239    4.64580310958022
C          26.49921871397275   -5.72287046480399    4.72578619270215
C          27.37623127091178   -6.66767966559488    5.29318753640778
C          28.59581745106863   -6.25896261975282    5.75596507453272
C          29.01672989416647   -4.92433713339790    5.68812564785621
C          28.17818585165556   -3.99427761150246    5.13889872107718
F          29.43446964712681   -7.16169767280014    6.29943256637814
C          25.22615598894221   -6.11259222041051    4.24768031826962
C          24.39628266911580   -5.17095452531769    3.70284458229266
C          23.03538150088615   -5.26627330247349    3.18512197852908
C          22.16184534403718   -6.29582749383977    3.43090376701426
C          20.77125195780935   -6.20124521917523    3.22619755024375
N          19.62814193269140   -6.15668400145669    3.12631422806642
C          22.54145764068740   -7.54889854352105    3.94265465555407
N          22.80742075183484   -8.61576391090044    4.27774928592017
H           0.34932946708546   -7.33428931952870   -0.02003552114756
H          -2.89895747441925   -5.49776171913670    2.04884627180303
H          -1.84925254988915   -3.26727014911745    1.75886548348081
H           2.20017814071225   -5.97588332715791   -0.87437958590854
H           0.01069531309219   -1.87123246524510    0.92564221398271
H           4.72633134148342   -0.23132975375299   -0.74958182251586
H           6.91238875501149    0.35338294303462   -1.44669460292843
H           9.27131510089130   -0.12647453719350   -1.64552014985618
H           6.29930335479873   -6.79811333332679   -0.84796552619473
H           6.35590342415236   -6.37343066811790    0.87190272907095
H           7.85946623526557   -6.83761235200359    0.02074771473838
H          11.11956837120389   -1.50632338100111   -1.31562361227993
H           9.80632526753209   -5.05539353987024   -2.31524136493659
H          11.72417157960163   -6.73336349681172   -2.63821051512129
H          13.79865392597168   -7.85485551028171   -2.74172336690537
H          16.24120624305841   -8.59924020285612   -2.42693806918739
H          18.41290355185500   -7.84013766563133   -1.50483191735481
H          17.90359793814236   -4.12374347554624   -0.71774232803594
H          19.51338422749719   -2.85528518915747    0.53843672325832
H          22.27481477329139   -9.66255729590569   -0.33837298781094
H          22.74626223780785   -9.23219602676304    1.32795745649940
H          23.70251648891714   -8.62659681846208   -0.03704413683589
H          21.68042411813067   -2.56493492941806    1.50767674702149
H          26.33142688716228   -2.37075578091373    4.00699769618793
H          27.08409357885756   -7.70376449408836    5.36511246767881
H          29.99020292687078   -4.66033496170265    6.06982682358325
H          28.47999063199010   -2.95956390401889    5.07572407721004
H          24.94084353528534   -7.15040829983584    4.31851578195075
