88
 SCF done       -177.850756116397          0.000608063603
C           5.59859782347427    7.61118283650867   -5.35469794964744
C           4.66623453568412    8.37568403230084   -5.99941001191366
F           5.01813324691044    9.05808890979515   -7.10228235732600
C           3.34083994311069    8.47985060062108   -5.55390278377099
C           2.96319002692745    7.79366686223649   -4.43369027276315
C           3.88405833639912    6.99089548737767   -3.72897721744119
C           5.22793682898892    6.89907030892598   -4.19731227870469
C           6.17235223790864    6.10890401968241   -3.50236572789855
C           5.78501022272336    5.43532001780515   -2.37468035031254
C           4.43577674698462    5.51759070558593   -1.92143889178107
C           3.50429068866280    6.27520395185276   -2.57249727364649
C           4.26971992984316    4.67810187066131   -0.72303904265290
O           3.28691589395890    4.53685566557550   -0.03483461591782
C           5.57602160599533    3.96971324259405   -0.55854639325902
C           6.53914946063545    4.59532654823867   -1.44915448922434
C           7.90023205189865    4.59174805367837   -1.31197603873373
C           8.59198563609197    3.95967771196278   -0.25773205171925
N           9.20438445274370    3.51246448321022    0.60372289451356
C           8.77475484769863    5.30228157309022   -2.16218574002937
N           9.52528595258364    5.85416651198055   -2.83172688047923
C           5.64461752479992    2.88189120879449    0.24080152592845
C           6.67971537331147    1.88794282501070    0.29157525875152
C           7.05471845389176    1.25809419128178    1.48968534048593
N           8.00100838737402    0.35620821760121    1.54431016236020
C           8.62767453317529    0.04144160036632    0.40628906490968
N           8.30331655244665    0.52328022878479   -0.79669746519024
C           7.34690073286126    1.41468683058828   -0.85078878844607
C           9.70015049329899   -0.90105427967525    0.49687021816685
C          10.44899964824614   -1.44497149404520   -0.52723215464207
C          11.39940549056296   -2.34131461090435   -0.03925342455239
C          11.36151724976870   -2.45771775991197    1.36397997119996
S          10.16267152317961   -1.48030427823055    2.07640971881106
C          12.35557678692099   -3.39363489144759    1.76106929045392
C          13.01107399269765   -3.86878931009577    0.61453027646434
C          12.43591844615213   -3.22131856898531   -0.55511977123950
C          12.79386140247490   -3.40818603806063   -1.85769585919417
C          13.82467030771258   -4.29784995086459   -2.22793749016980
N          14.66427351686649   -5.01839678338224   -2.52878421661508
C          12.16033892314666   -2.73040340876474   -2.92125873142106
N          11.65191139287480   -2.18895212351881   -3.79429963444159
C          13.99698939837052   -4.81389159433239    0.90748522757963
C          14.10130536423278   -5.05058969316505    2.26280457482700
S          12.95969798088922   -4.09018899415255    3.19253461599799
C          14.97633620661410   -5.96477946678040    2.93620185453852
C          15.16063241043130   -5.94287697968725    4.32832914973586
N          15.91704214338224   -6.80547490189062    4.96140972708356
C          16.49262884749559   -7.76480438917635    4.23791864424923
N          16.43781860831450   -7.84431013512556    2.90541132893363
C          15.71299915907083   -6.95730177021588    2.26777996621366
C          17.26701606645053   -8.75203247636957    4.95986900138381
C          17.50005775721309  -10.02638717638700    4.59250825021817
C          18.59059791135950  -10.81470003927628    5.25267578155484
O          19.14527846872160  -10.54645036489463    6.28988588212388
C          18.86289906796056  -11.93128034869185    4.33082012717189
C          19.84766363283689  -12.87606953709423    4.39768085363219
C          19.93596008320971  -13.85334423548590    3.38246171676808
C          19.00510300965649  -13.82478825437011    2.30208236411172
C          19.10533078189988  -14.79727202901251    1.28780496292576
C          20.08507556109739  -15.74769410900720    1.36375254821704
C          21.00657262684840  -15.79516100167425    2.41968977912061
C          20.92650997433416  -14.85720956427726    3.41058429789930
F          20.18107434180618  -16.67800889039108    0.39848432238472
C          17.99327770238522  -12.83848949813786    2.25977545030869
C          17.91487569188141  -11.91212777870698    3.26553608595922
C          16.96300035044138  -10.83382248382027    3.50678929912358
C          15.70566222976443  -10.75344835220513    2.98211561006274
C          14.71146034707980   -9.85157851722447    3.41992065315874
N          13.83579709339343   -9.19008713432081    3.75530734618056
C          15.21397516475152  -11.63254984052250    1.99272612679771
N          14.77308538104287  -12.31309272995680    1.18112279823095
H           6.61072737535168    7.55718496557476   -5.72406583156220
H           2.64959870396239    9.09827900706719   -6.10413458161742
H           1.94831971433039    7.85817457012685   -4.07136572680374
H           7.17901523699725    6.04924682941590   -3.88471229128888
H           2.48953056955093    6.32814919279466   -2.20758286541158
H           4.78239559938302    2.71458047889897    0.87948984237937
H           6.58589022753103    1.52019887585152    2.42906157838270
H           7.06365563515022    1.75050029463997   -1.84150702305021
H          10.28587774834714   -1.18709364502646   -1.55739405144022
H          14.61365082195718   -5.29742458297549    0.17244847446798
H          14.68169536535316   -5.18862859546397    4.94149561159834
H          15.69760010202298   -7.05008476326319    1.19002825879688
H          17.73197504626989   -8.40310719107873    5.87426039365786
H          20.55015436995954  -12.87783504084335    5.21761129186188
H          18.41051338856484  -14.79366106814840    0.46260573881090
H          21.75712045711058  -16.56956430630022    2.42631933757150
H          21.62497809183807  -14.87320346752743    4.23356555061651
H          17.30785698212933  -12.83346426623078    1.42712212650635
