100
 SCF done       -208.719111147532          0.000432162741
C           9.94677312290217   -4.27220379381831   -9.55870047059422
C           9.59700906850134   -5.25872580971689  -10.43848923056110
F          10.49555010507757   -5.68987690227529  -11.34012900147264
C           8.32517293588281   -5.84871895338656  -10.43981594249201
C           7.39839061497747   -5.42523902840203   -9.52862569937663
C           7.70607946428247   -4.41275601063174   -8.59626046526839
C           9.00440788021473   -3.82262699488761   -8.61348758749627
C           9.33361242252785   -2.79941621351169   -7.69433929465820
C           8.39581532933947   -2.38830120144977   -6.78644891306847
C           7.10562285650464   -2.99446629722137   -6.76064396428583
C           6.75876846515593   -3.97687735167098   -7.64350465872945
C           6.30676346764646   -2.40838164118090   -5.66775697409504
O           5.15686554516607   -2.62979581599974   -5.37926046779741
C           7.26290717934339   -1.52539508137296   -4.92835585986168
C           8.43712601252900   -1.35173727322077   -5.76078685889273
C           9.26444018245660   -0.26159367467730   -5.76099934127096
C           9.06887737686499    0.85315566211144   -4.91797189413675
N           8.91113347106848    1.79046069777407   -4.27504496184854
C          10.33548316129317   -0.09484338887402   -6.66306586972265
N          11.22739910404094    0.07066175437911   -7.36545374892907
C           6.99020542338166   -1.16726134696064   -3.64923106443224
C           7.87315364682446   -0.73076790462062   -2.63023761641263
C           7.51647114429043   -0.17151842377364   -1.42475727877975
C           6.26363183820909    0.27771353733197   -0.78615924714395
O           5.12686786337135    0.21013544627796   -1.17409287338590
N           6.66734676519345    0.80463206696155    0.43442005695763
C           5.74780883348408    1.37240235086936    1.38971663537451
C           8.03571423893860    0.72722038565833    0.66358831749171
O           8.58556155242402    1.10318654063294    1.66811418748291
C           8.58651761993487    0.09447623754610   -0.54805188091973
C           9.81860589867130   -0.27724247783319   -1.04689947927627
S           9.61593810157915   -0.96772734618246   -2.64199235623420
C          11.10103488612247   -0.17684801751465   -0.45518027471789
C          11.39465496777414    0.13693861734789    0.86248818562413
C          12.76711885143213    0.12821626566066    1.09581167008144
C          13.52080581868664   -0.16997431367658   -0.05722855538553
S          12.54250677972084   -0.46916198678800   -1.41824676114023
C          14.89934586917297   -0.13846756840825    0.27349466631512
C          15.01402731251735    0.16279255193940    1.64563352823518
C          13.68229617264701    0.32974256080894    2.20852921188894
C          13.37303108029143    0.58117007709481    3.51151121959563
C          12.04815346231621    0.67719035422548    3.99239655467740
N          10.98744793376073    0.73486380900670    4.42167760984129
C          14.37707938865739    0.72738905425590    4.49389517665833
N          15.19238976358279    0.83796543954383    5.29222085869751
C          16.33611149106679    0.20635285266232    2.07128092933097
C          17.21853025807586   -0.04632157572206    1.03144266838160
S          16.40645928375633   -0.34211123678543   -0.49792734697004
C          18.62931223936922   -0.07899013999844    1.11439262999088
C          19.55561071601133   -0.23230982023388    0.10712878242109
C          19.54068845883061   -0.39709537729843   -1.34944060020058
O          18.60198905240403   -0.48226965694884   -2.10634632255423
N          20.87714222678748   -0.46403262916968   -1.71418212650105
C          21.31400155112216   -0.61176630785656   -3.08069244915506
C          21.76230382187993   -0.38596789153512   -0.64010720259777
O          22.95941331390912   -0.46074603869137   -0.72439640447958
C          20.89458560749932   -0.22793722047817    0.54332979806495
C          21.05519876812967   -0.04582572449469    1.89636670047036
S          19.46480148012158    0.07935112775282    2.64535178174998
C          22.27516200803964   -0.06788368429738    2.62106674798057
C          22.53633183404837    0.40287435898357    3.86426343996607
C          23.71144101522784   -0.12591977600497    4.62730456521118
O          24.64289848635169   -0.74601429901951    4.17706815589041
C          23.42894265837087    0.21204920133855    6.03418476896979
C          24.10782884698219   -0.16309096667067    7.15839177800830
C          23.63458514584344    0.25674348247477    8.42110450384956
C          22.45578958203646    1.05635694670784    8.49706219796256
C          21.98484541090876    1.46116968291191    9.76114467197934
C          22.66757695836558    1.08363196803910   10.88413478449782
C          23.82941016157285    0.30050458253222   10.83012328238039
C          24.29977629436221   -0.10270823539003    9.61171127066885
F          22.22069741070941    1.46901244389160   12.09123539075031
C          21.77670746733371    1.43743486349608    7.31650351728130
C          22.26114186365651    1.02726494354956    6.10402314372023
C          21.80045751069891    1.28970930886269    4.74534395624310
C          21.04154044767581    2.35837254811290    4.35292072017138
C          20.85063983946428    2.71590426099676    3.00137657882026
N          20.70509332736833    3.05283378301464    1.91405932395322
C          20.45632134298217    3.27263881778390    5.25427682135521
N          19.96070748941075    4.03718880358099    5.95097943399156
H          10.93378037639905   -3.83792377139216   -9.58956273168556
H           8.10655253956517   -6.62269723265862  -11.15825940191436
H           6.41248356468025   -5.86454864967979   -9.51002815622900
H          10.32441437521988   -2.37369356463085   -7.72133480698769
H           5.77355007666549   -4.41743587316154   -7.61426942159371
H           5.96228964178092   -1.30327299894460   -3.32334521735995
H           4.77540715916099    0.90151882767689    1.25574353860095
H           5.65122486687465    2.44860065103772    1.23389378640282
H           6.12958976965519    1.18994229298981    2.39311211553268
H          10.63412509244476    0.36527621574853    1.58896738670948
H          16.66621380415215    0.41467379640781    3.07337598273268
H          20.60980528192670   -1.25168658508944   -3.61053219957723
H          22.30803422371718   -1.05565206891370   -3.07631567824080
H          21.35502989534108    0.36048553677208   -3.57555332981315
H          23.08671434112336   -0.59567202906262    2.12734467013726
H          24.99515737980178   -0.77376496407219    7.08499812930750
H          21.09592029425006    2.06716737989175    9.84022355619263
H          24.32531798106677    0.03355173888497   11.74982402749509
H          25.19220026993270   -0.70646473109200    9.54483817648681
H          20.88162271682564    2.03369404170565    7.39943039565864
