72
 SCF done       -134.093902818352          0.000356526597
C           1.42694472501859    0.12966520810410    4.12107700716219
C           1.32042213639029   -1.08061166606395    4.73029582010322
S           1.01432330397097   -1.58016852211602    6.36764221813917
C           1.12920437745002   -3.27081635824553    5.88230043158442
C           0.95133949263318   -4.32322384719459    6.91356761454487
C           1.38101546225199   -3.43209285602785    4.56273534577701
C           1.49886149259168   -2.19990781464670    3.86287622185900
C           1.74977439666301   -1.80875986260366    2.55587679306524
S           1.75537296331113   -0.06146117801864    2.44054619005763
C           1.98725867879365   -2.60196168364583    1.41273802068573
C           2.27224098494355   -2.20534972161498    0.12156636802928
S           2.43545184902863   -0.64092142479478   -0.60661893095726
C           2.76207774187062   -1.39295176369793   -2.16373197375688
C           3.01255601144205   -0.52671302141158   -3.34226541011858
C           2.74737462759372   -2.74460498821710   -2.11433340422623
C           2.47291971932691   -3.25505494045502   -0.81388442586211
C           2.33814926518721   -4.51197659828243   -0.23136897445017
S           1.95854094899534   -4.34875407285477    1.46935075725454
C           2.46776871813825   -5.79687801628120   -0.80292530147872
C           2.90120757197981   -6.13074276488276   -2.07576236619474
C           2.90231439802221   -7.50699808024982   -2.28773231342968
C           2.46770585009738   -8.24163281411541   -1.17122210257925
S           2.05807105106786   -7.22673326171837    0.14407362806959
C           2.51395668082928   -9.61832320340771   -1.49292337538034
C           2.98332844566097   -9.75755254773458   -2.81168119419386
C           3.23811346845565   -8.43553250686092   -3.35573418900979
C           3.68769383860297   -8.12067682260698   -4.60593170265584
C           3.87257243310674   -6.78401510048807   -5.01325798057621
N           4.01647837788877   -5.69515383130500   -5.34542437940246
C           3.99033921753943   -9.10128733405073   -5.57265847389392
N           4.24297387317334   -9.88760063809052   -6.36857104290556
C           3.06405971592777  -11.08592579385981   -3.22839768618868
C           2.65411932904397  -11.96351356179815   -2.23956966416816
S           2.16634915949574  -11.12851700092307   -0.76927413944805
C           2.59682541919700  -13.37473797242696   -2.31273135616546
C           2.97157733053699  -14.21117176148308   -3.34442022180060
S           3.62993086446185  -13.91409718958706   -4.91991425447616
C           3.61546304522916  -15.64012208296079   -5.26418227931983
C           4.10019734701517  -16.10939250518406   -6.58587563359003
C           3.14050126102166  -16.37934127600643   -4.23834054501396
C           2.76947209682070  -15.59887778849499   -3.10581059561369
C           2.22876500885082  -15.84650996892583   -1.85126248570707
S           1.97677343705758  -14.34078751685546   -0.99711052681212
C           1.86445128363456  -17.05674889353892   -1.20538725121307
C           2.22732201041635  -18.36925228303916   -1.41378833600209
S           3.30829368181872  -19.18203506192245   -2.50417765806367
C           2.94936233084648  -20.73742140151798   -1.75032886621513
C           3.61645473941480  -21.95219008078855   -2.28224860553388
C           2.06950312959947  -20.63759640327001   -0.73493068874861
C           1.63748938013372  -19.29639496196073   -0.49954469927195
C           0.81666360741548  -18.68467130769008    0.40566522579751
S           0.76069285087099  -16.98650106461758    0.15823629208031
H           1.33672939461917    1.11063603783438    4.53980387606133
H           1.70067244261606   -4.21823459412118    7.69801419252525
H           1.04561397563653   -5.30821538121976    6.46332547343656
H          -0.02971601174833   -4.23822247186377    7.38040814009109
H           1.48183662129992   -4.39586350825548    4.09777361980375
H           2.15155941286285    0.11289191338102   -3.53495873298108
H           3.20467607104589   -1.13707333276328   -4.22105704924416
H           3.87161015624014    0.11951765221776   -3.16413976326754
H           2.92026569392154   -3.35097045776555   -2.98362059648797
H           3.21681096219507   -5.40549981967791   -2.79946761432410
H           3.39662625755050  -11.40786435711737   -4.19784441693264
H           3.51123487336836  -15.66565807909111   -7.38815177247201
H           4.02749197075531  -17.19229941789548   -6.64785539433612
H           5.13829012254459  -15.81403951114418   -6.73631176307699
H           3.05031380936626  -17.44768832305004   -4.28262866364443
H           3.36233365294156  -22.09765856218095   -3.33197677759174
H           3.30509544219289  -22.82807316716413   -1.71848036358127
H           4.69946973817619  -21.85276854177052   -2.21415155617231
H           1.72850719175695  -21.47527650034401   -0.15384828048581
H           0.24906909179973  -19.12590166762342    1.19934254293570
