106
 SCF done       -208.954969478848          0.000447101193
C           4.65689416695740    4.92052240942915    6.60991012181160
C           3.86876349883394    5.96033534914076    7.01848409955331
F           3.88494516858395    6.33546449493213    8.30910602300694
C           3.03368119679305    6.66228489949861    6.13778517703278
C           3.00461574258408    6.29708985797661    4.82090470123607
C           3.79830961248129    5.23306594720550    4.34459272791485
C           4.63845361844357    4.52920012835186    5.25694233546238
C           5.43599909802416    3.45235552687618    4.80549096309823
C           5.39580924212064    3.09478307323872    3.48435767948926
C           4.56966046059305    3.81568071483984    2.57316810234905
C           3.78364555275068    4.85412734188820    2.98432315341448
C           4.74504006481660    3.26987889688984    1.21618537623129
O           4.17601870519214    3.58918236831525    0.19930233488689
C           5.84167723246086    2.26212478642584    1.34068335071146
C           6.07015534581156    2.02443249060790    2.75594422770116
C           6.60708326706979    0.89823964011710    3.31692994258950
C           7.03095032096585   -0.22534649939474    2.57668181866676
N           7.33761450804914   -1.18317153365309    2.02405405324643
C           6.71886741195536    0.69492793185594    4.70880380656441
N           6.84133726818084    0.49480670792784    5.83187034784750
C           6.48732966135180    1.84371675537508    0.22852301714989
C           7.74616234410916    1.16067060247642    0.14091705051269
C           8.03174435726449    0.24774941013137   -0.88870528371421
N           9.17510376140606   -0.38187065391083   -0.98480046738344
C          10.08832163397381   -0.14883406025725   -0.03740570897357
N           9.94904326843917    0.74868652430238    0.94076153188578
C           8.81777044090084    1.40071485543141    1.01668538850292
C          11.31656154632475   -0.88859131628369   -0.08667788020112
C          11.69618815684925   -1.79778988944200   -1.03113797262410
C          12.97611136329828   -2.34809171710947   -0.78981685496779
C          13.65430700088191   -3.33059593162782   -1.54176871648062
C          13.13579421310634   -3.86007687268324   -2.78535483160244
C          13.21953304728041   -5.14208765141367   -3.25267461160073
C          12.66131522662521   -5.29075120207887   -4.53908307793540
C          12.16447802326989   -4.13750996182878   -5.07642562253592
S          12.36960517812397   -2.83020226832146   -3.96517349941440
C          11.50561958125604   -3.94290649380975   -6.39276633348232
Cl         12.62076910188081   -6.80023367261728   -5.36441628101866
C          14.87778192971631   -3.75786416019526   -1.03605350565191
C          15.45112579315577   -3.24971134767140    0.15665917745543
C          14.77571880129810   -2.26553381387078    0.90665155596457
C          13.55141429104989   -1.83186724365811    0.40183253987760
S          12.50810317807424   -0.65917758317402    1.15780465593431
C          15.29719246161495   -1.73683269253263    2.15002872340521
C          15.21657127172613   -0.45521305186901    2.61710180433599
C          15.77857481444565   -0.30568648377462    3.90236543289811
C          16.27540041959137   -1.45743527402832    4.44149971034719
S          16.06438428746001   -2.76589058101623    3.33140919546928
C          16.93722478099086   -1.65778589862056    5.75517433436915
Cl         15.82355782281703    1.20833235511760    4.71914781454112
C          16.72951760657629   -3.80735350406483    0.40148315301399
C          17.12990311330244   -4.71113728649273   -0.53897422153660
S          15.92700883436116   -4.91964682112836   -1.79587358058639
C          18.35402082195701   -5.46101924829084   -0.57743635666552
C          19.33505161940811   -5.39128545744461    0.42591316219334
N          20.44165426681490   -6.09265585708242    0.38141351873566
C          20.60729376731166   -6.93384009467441   -0.64010250279274
N          19.75302009976745   -7.06110678169305   -1.65974203168217
C          18.66454659441987   -6.33114451069628   -1.63387792188605
C          21.83256115448753   -7.69914200687677   -0.65061696837526
C          22.11183030189308   -8.80959800398394   -1.36267474953461
C          23.53659431534093   -9.23651285539720   -1.54464959842439
O          24.48635791243903   -8.87502690924381   -0.89382907030524
C          23.51900964495052  -10.12767025171779   -2.71827076301154
C          24.57250625944420  -10.68470829711335   -3.38631930307907
C          24.32239786389611  -11.49405738852585   -4.51596593652579
C          22.97721748536255  -11.70497276399520   -4.94040190458223
C          22.73639296246114  -12.50605138524561   -6.07391998909325
C          23.79271564253298  -13.06487233517023   -6.73774189762124
C          25.12168024696958  -12.87174044964734   -6.33457787380465
C          25.37406347638228  -12.09593437384713   -5.23797844031477
F          23.56487112956811  -13.83019234230986   -7.81950352554875
C          21.90536435610897  -11.12130145295116   -4.22672944499969
C          22.17107575156297  -10.35125854020988   -3.12594636911980
C          21.28192251056698   -9.67310244831583   -2.18879039873961
C          19.96935292822544   -9.97928867877087   -1.97558538666148
C          19.21208665040998   -9.49864624112507   -0.88469051315207
N          18.56438118078605   -9.20875342571753    0.01692624882337
C          19.24132824152771  -10.89305591903258   -2.76725260855574
N          18.60730391484332  -11.62014389449886   -3.38839990028157
H           5.28442326640228    4.40037814745544    7.31660652514312
H           2.43391804820823    7.47388801900805    6.51804810955932
H           2.36984845193798    6.82265403886922    4.12356004818023
H           6.06836562373804    2.94243713358795    5.51497150157229
H           3.15923123392903    5.38117205963225    2.27859846386539
H           6.01929365911096    2.11427912758635   -0.71324777750317
H           7.29073830258861    0.01107750510702   -1.64140233749553
H           8.76027721323413    2.17335371110923    1.77454679194873
H          11.05632815674732   -2.05631090384101   -1.85325183212369
H          13.62534357062916   -5.96457649822746   -2.69381959681845
H          11.94845391973083   -4.60913379064477   -7.13070171615145
H          11.61078866117833   -2.91307588205997   -6.72500047339408
H          10.44154759705386   -4.17428956402537   -6.32388001572824
H          14.80530689982436    0.36507296044820    2.05970276105696
H          18.02187245666366   -1.60377906414304    5.64994139583649
H          16.68559395715141   -2.63277211110047    6.16659089159020
H          16.62226198545014   -0.88084018079836    6.44817679349351
H          17.33748243095895   -3.53120009785254    1.24180334551651
H          19.22258842617731   -4.74587900728879    1.28649860172614
H          17.99573358805518   -6.44001215554924   -2.47948929228598
H          22.63489637415364   -7.28147913692975   -0.05359623060664
H          25.58536112671689  -10.50863693678125   -3.05628133146650
H          21.72625767735219  -12.67960628671501   -6.41042112012281
H          25.91396918485210  -13.33871640780720   -6.89783547146191
H          26.38895633770541  -11.93257203750360   -4.90819091726046
H          20.89803195600449  -11.28913832976805   -4.57355356972890
