130
 SCF done       -236.342393331663          0.000943229958
C           1.48608808298956   -0.50250398345913    8.07730188076225
C           0.53920954856750    0.22572984845171    8.74192236930086
F           0.13417491693095   -0.17153236068204    9.96157389050722
C          -0.03473194857546    1.38453501683201    8.20093412761540
C           0.36527885566372    1.80485794264285    6.96319709680980
C           1.33991475058565    1.09305826556295    6.23390712127459
C           1.90968314209747   -0.08453620307406    6.80058376340145
C           2.88361313769592   -0.81946556884136    6.08573983536820
C           3.27708675346771   -0.38580978123443    4.84830780856605
C           2.71610499712642    0.80121787010222    4.29408741667635
C           1.76790666132197    1.52436654522932    4.95860435432078
C           3.33846856919882    1.06985465158661    2.98331474675981
O           3.07662955481959    1.95432118504818    2.20160058448106
C           4.42039238722941    0.05248535618134    2.84989657534453
C           4.22190533165795   -0.94451187304495    3.88558604681428
C           4.64190600073872   -2.24727803373002    3.85306641209435
C           5.33657077397548   -2.82593623378852    2.76980391201197
N           5.84814017483941   -3.37282726109252    1.90009311652414
C           4.37864336237358   -3.18248182817115    4.87414477223201
N           4.22601915076674   -3.97000483695783    5.69554639031574
C           5.40910782330438    0.24409917129197    1.94251271940126
C           6.70256613745625   -0.37969031210112    1.87652017943655
C           7.34855840737755   -0.84926973945186    3.03213089286360
C           8.57708039319323   -1.44625322464182    2.92177775109194
C           9.19504044456998   -1.58508425734887    1.66543417806707
C           8.57842423805374   -1.09852004766990    0.52013509062043
C           7.34715427735083   -0.48906558562260    0.63624990890786
C          10.47481052812411   -2.22650121674019    1.85686642955419
C          10.64271031510393   -2.50007097513728    3.22779599908254
C           9.41249696890568   -2.09132562584211    4.00509704540057
C           9.73991172199847   -1.12494279310375    5.15211457584652
C          10.43375651596139    0.14157757997114    4.66358355673639
C           8.61080762725357   -3.31878625898811    4.50435382698799
C           9.36406709625659   -4.27430503925054    5.41921465828683
C          11.82367981548837   -3.03086432271713    3.68364893415441
C          12.86118113452533   -3.32278261779639    2.77957381626544
C          12.65733964421301   -3.08077001652166    1.41181775135082
C          11.48050878293986   -2.53354710725380    0.94844727937187
C          14.09351797227890   -3.84024001673861    3.31214202713251
C          15.24684401111921   -4.02046765400445    2.62844460767941
C          16.46988197957646   -4.48860732379218    3.19137868443753
C          17.63613680334158   -4.53383055482728    2.38323076517856
C          18.91997361267963   -4.91801552390288    2.88224886314274
N          19.98427832603593   -4.89548921217025    2.05118838595587
C          19.83996693109940   -4.54130394975008    0.80466079689567
C          18.54993137345848   -4.18394939368474    0.30013778536160
N          17.50834822275753   -4.18292492425408    1.08334660378477
C          18.34649527905642   -3.80626802646891   -1.12761488077925
C          21.05268477060664   -4.52825165527107   -0.05927098521797
C          19.09969640382212   -5.31106688155045    4.23294942539084
C          17.93407284082598   -5.31348274145321    5.02487915583373
C          16.64276667080816   -4.90586009968640    4.52889048588729
N          15.71148951658812   -4.98773967883264    5.48442671867558
S          16.37900623178414   -5.51705177232504    6.84184103412498
N          17.88611916058989   -5.67032680585084    6.30976691280047
C          20.35114812903613   -5.66928669012646    4.80536025523586
C          21.59887020359617   -5.67356987248113    4.19454412723909
C          22.60738874166561   -6.05171267929468    5.06801695820023
C          22.13227719600992   -6.34891073814036    6.36302553876835
S          20.43678793497935   -6.15340464972683    6.49248936868383
C          23.23579288401457   -6.70750428209927    7.16796580310718
C          24.41223311286991   -6.62882938197202    6.38546522482903
C          24.04979148582566   -6.22550136922703    5.03989279584524
C          24.88670755937266   -6.06442333022155    3.97337977411753
C          24.41513324556416   -5.67580261594494    2.70336862950695
N          24.03541079222078   -5.35183945872837    1.67025840883427
C          26.27646602736348   -6.27382683802547    4.09121331844851
N          27.40627108521991   -6.43586197897073    4.20415706007884
C          25.55623498804241   -6.97165877472752    7.08745852650974
C          25.28327825779138   -7.32272600358411    8.40491021766673
S          23.55981667544483   -7.18933327210891    8.76617437884199
C          26.16754988855796   -7.68123514134101    9.43739538999299
C          27.48230091573191   -8.04677021671857    9.36646959004163
C          28.31546306340820   -7.92145984703840   10.59389763479140
O          27.91591985536054   -7.74006277149472   11.72226469464153
C          29.71162554400615   -8.00548132235956   10.12633104855759
C          30.86701132567023   -7.81820967404654   10.82811828597335
C          32.10484890325939   -7.90293284436401   10.15173367804318
C          32.11909475399447   -8.17491878518195    8.75258345104610
C          33.35594951940483   -8.24387298241467    8.08261471318731
C          34.51218312873268   -8.05310026198460    8.78674088405398
C          34.51945060880840   -7.78759126624228   10.16275284302701
C          33.32739437087081   -7.71548589490905   10.82842847915963
F          35.69543068417287   -8.11896488978737    8.14867715437791
C          30.90565871945421   -8.37489060249111    8.05281605256430
C          29.72099911439323   -8.29968477789440    8.73264693821705
C          28.33986507495044   -8.47914215996119    8.28763779256085
C          27.96772793390289   -9.17381260982297    7.16419305281858
C          26.64008812423221   -9.54135056563452    6.87603239082840
N          25.57265951952239   -9.87865598339743    6.61926356593031
C          28.88149179610442   -9.68939426376592    6.22206692725574
N          29.58217095406889  -10.13616810958042    5.43036876314026
H           1.90331469072339   -1.39203276685606    8.52287792514353
H          -0.77760289620541    1.91819645328533    8.77220930288948
H          -0.06196046626770    2.69458249079548    6.52572861056111
H           3.30332637892009   -1.70300970801973    6.54048862916463
H           1.34940091703817    2.41621045586682    4.51678281105603
H           5.20783842731729    1.01344443760505    1.20291787816565
H           6.88944781697032   -0.70384675543658    3.99938810615493
H           9.05286872214682   -1.19444736298769   -0.44448044823985
H           6.84482810220981   -0.11591372811769   -0.24398819625537
H          10.38518090897887   -1.63001999244590    5.87171361732225
H           8.81285555893414   -0.85821228612235    5.66448084822459
H          11.37206749274797   -0.10192218406323    4.17005439637254
H          10.64674713608748    0.80028174323332    5.50238421944436
H           9.80461873989140    0.67775056563060    3.95617144029138
H           8.26179585865859   -3.87168003462618    3.62834975078178
H           7.72675715366244   -2.94748458679762    5.02902968774354
H          10.19319785743612   -4.74104291168942    4.89472458748753
H           8.68642540773589   -5.05896860102430    5.74792242210451
H           9.74256085155410   -3.76516228443308    6.30190021531876
H          11.98738890522023   -3.20647278521840    4.73641718072280
H          13.43917169009717   -3.32279099078279    0.70936370322476
H          11.34523913707436   -2.33731695394572   -0.10460267029864
H          14.08711134697562   -4.07460003558757    4.36801146277844
H          15.31906574419565   -3.77665468496430    1.57867460972583
H          18.65567576485034   -4.62059063362158   -1.78108766608584
H          18.94512899067802   -2.93136521387000   -1.37664108503492
H          17.29700269796502   -3.58531010947603   -1.29903995512939
H          21.92704738468867   -4.81696603421517    0.51769310958025
H          21.20851096230957   -3.53309393259087   -0.47334856815334
H          20.92920394490855   -5.21946567030184   -0.89177340771774
H          21.71661456896603   -5.40221858202276    3.16242238887657
H          26.55314131290429   -6.92280992873978    6.68910701455636
H          25.78411172426105   -7.58075139307565   10.44863747623928
H          30.83816747447193   -7.60435018251851   11.88607333564205
H          33.38818812406563   -8.44963825247074    7.02411922594629
H          35.46304916916230   -7.64569969239034   10.66535564637602
H          33.30706939132011   -7.51150809278348   11.88849933656453
H          30.94374471187611   -8.56858298153003    6.99252614398654
