102
 SCF done       -209.479803563322          0.000572932470
C          10.16873645489191   -1.43144827514040    8.52731841026112
C          10.40615646141817   -0.79791876346655    9.71556041790885
F          11.08115807499292   -1.44004695405438   10.68532400084194
C           9.97042690544795    0.50954584533803    9.97020604562433
C           9.28416958018807    1.17981704983636    8.99603317288920
C           9.01317218994567    0.57553141493113    7.75128455641078
C           9.46075179195621   -0.75719901868389    7.51406058527245
C           9.19001648792218   -1.38952720748499    6.27771663400056
C           8.50244133134827   -0.70492022291274    5.31415119205014
C           8.07784806254594    0.63615115548504    5.54590724949139
C           8.31538453890052    1.26507033145177    6.73393384820515
C           7.41403359184526    1.15402442271415    4.33401183029682
O           6.87881771378876    2.22694252136517    4.17227125015977
C           7.60106774127502    0.09037881779203    3.30891292125487
C           8.05897485768867   -1.10230476246018    3.98151681453059
C           7.83995613257705   -2.39300241352549    3.57131201665941
C           7.14029356527155   -2.71241340211658    2.39062489824696
N           6.54043956474343   -2.99784237281627    1.45384573927130
C           8.18745405826852   -3.52622050948431    4.33304903542951
N           8.45504206749309   -4.47933236823204    4.91386194278471
C           7.42841647147229    0.38652987128449    1.98654139773927
C           7.96085682579699   -0.26127720076401    0.86049896644346
S           9.33645858333308   -1.33837303844324    0.92675145059316
C           9.38227447291563   -1.55890390521221   -0.80358125485410
C           8.36243793674002   -0.81486735329730   -1.38749642471247
C           7.57727568983846   -0.07100455628669   -0.47309962914703
C           6.56464364640263    0.66752856327263   -1.12580193210905
C           6.59768244772547    0.48666826324238   -2.47760546755107
C           5.73282842518878    1.07031369763262   -3.50921287479635
O           5.85296954244218    0.84729337291109   -4.68865134078402
O           4.80363163555512    1.87605521496165   -2.98342063103921
C           3.91695696234389    2.48326711276882   -3.91398340364485
S           7.85632657543100   -0.59598033047273   -3.02410827344405
C          10.33645155338795   -2.36701466116463   -1.43489167491114
S          10.32392831840044   -2.54674148718013   -3.16985064044688
C          11.72999296883486   -3.58819504066952   -3.16823473929839
C          12.15751591556315   -3.77866505548104   -1.85937753697097
C          11.39140896577347   -3.10097378291010   -0.87759291011834
C          11.89912400375936   -3.31512897895967    0.42372594352728
C          13.00109416157333   -4.11870092507146    0.41462104977946
C          13.78727697533641   -4.52452531984506    1.58504737928942
O          13.55520942585720   -4.17301399324196    2.71426266767786
O          14.79491596301066   -5.32655163866441    1.22744749383285
C          15.64596330202320   -5.77172103777278    2.27364128965268
S          13.47616340243241   -4.66136221459229   -1.17720853626442
C          12.30561731769444   -4.07183543802967   -4.35000029661020
S          13.70312880798966   -5.10450399394115   -4.29024522399968
C          13.86107551958484   -5.16149759212813   -6.03660102700426
C          12.81531307202970   -4.44246660277942   -6.60520508280905
C          11.94581785103971   -3.81298054175063   -5.67795042434734
C          10.93152626224450   -3.07107389515993   -6.32212296766443
C          11.03685474945859   -3.14190564224148   -7.68029531921024
C          10.16775019699303   -2.50990853009869   -8.68024059495857
O          10.31149073831799   -2.61815421316724   -9.87212913762963
O           9.19594732598599   -1.79980214402787   -8.09441172685210
C           8.29093261778230   -1.13969400003388   -8.96923742663267
S          12.38082309624626   -4.11055249764146   -8.24112777245353
C          14.84067819719507   -5.90362404390344   -6.71662621053364
C          15.98951221697618   -6.46396493189118   -6.23520355703096
C          16.61427463959009   -7.59796013865323   -6.96897126982597
O          16.37053955166336   -7.95348699532280   -8.09897227369327
C          17.53603915448658   -8.22121808348396   -5.99791611154095
C          18.27579108081147   -9.36114984188959   -6.12426664582533
C          19.08050510509701   -9.78458938903886   -5.04231032242175
C          19.09519752843947   -9.01820123742024   -3.84050890904441
C          19.89452961365177   -9.44987724933687   -2.76443343224690
C          20.64094805991988  -10.58759678136575   -2.89651015083228
C          20.64252734786146  -11.35318282657962   -4.07027884193340
C          19.86971139550815  -10.95008386245831   -5.12370766315549
F          21.40675805504909  -10.99955938937454   -1.86964993630038
C          18.32357323884844   -7.83686147967117   -3.73986727957539
C          17.56318309084348   -7.44084823835346   -4.80566475656000
C          16.72729837442992   -6.26097845089464   -5.01050078406273
C          16.85161184559378   -5.07914760906581   -4.32380989657453
C          16.28895807687997   -3.86632123573919   -4.77006041377789
N          15.89116850384336   -2.85265161262336   -5.13463774440597
C          17.62675074832546   -4.92588729431040   -3.15843514873979
N          18.22051617485491   -4.75775125401875   -2.19021638743891
H          10.51644477717939   -2.43978843848171    8.36638449917223
H          10.18646322775621    0.95784231852977   10.92696442862159
H           8.93956302752953    2.18819537974655    9.16882977273166
H           9.54556017071841   -2.39524324545904    6.11753471343378
H           7.97757994083390    2.27751459615602    6.89681742026978
H           6.87761429316193    1.30022487233671    1.78438670265382
H           5.84729539723527    1.29822552721027   -0.63481711113003
H           3.23944321977857    3.09837681296993   -3.32810330649219
H           3.36482135604335    1.71911366969588   -4.46458285545441
H           4.47532765151717    3.09484817290057   -4.62550712478051
H          11.49157619493698   -2.90720553538722    1.32998786527781
H          16.40741138750915   -6.38651683547909    1.80174949266197
H          15.07649873376910   -6.35150575345519    3.00291953235730
H          16.10029653476971   -4.91760974338032    2.77943682219948
H          10.15956498274240   -2.51157063651438   -5.82778516327401
H           7.58930100887981   -0.61068502244069   -8.32957011081637
H           7.77043589454114   -1.86727981628879   -9.59522290418688
H           8.82840974112358   -0.44193493090322   -9.61443883455192
H          14.60945276424684   -6.12835762406561   -7.75418978226901
H          18.25058916075910   -9.93296370895021   -7.03971409205593
H          19.92138758666229   -8.88234415560588   -1.84737002114892
H          21.25226366647101  -12.24145820224217   -4.11694864384342
H          19.85456386905649  -11.52347989316281   -6.03829940224474
H          18.34668051345871   -7.27739163610712   -2.81802009170900
