138
 SCF done       -285.964891895914          0.000524935770
C           1.08886402348012    3.06327798103159    2.75935008995684
C           0.12580837937854    4.03159194205652    2.82448471494127
F          -0.71784854500812    4.05735086244175    3.87145653457669
C          -0.02239336229386    5.01232040525413    1.83402680851265
C           0.82613313190584    5.00367949863073    0.76219025125041
C           1.83758664214048    4.02831180449545    0.64431340653606
C           1.96975064547028    3.03742551908520    1.66084975373299
C           2.96909589793891    2.04139247900150    1.55959400405591
C           3.80669399564125    2.04089829403626    0.47766239691756
C           3.68553520542355    3.04757489535245   -0.52329907647722
C           2.72560404654047    4.01588982917166   -0.45441191531912
C           4.73645084357748    2.85220181823382   -1.53764728197519
O           4.91818709809244    3.47628789105768   -2.55774010247709
C           5.58689937651659    1.74407954013966   -1.01365751785377
C           4.88821899982743    1.13484281119570    0.09734441391108
C           5.01927844245903   -0.15337077865885    0.54826582809238
C           5.91898714290196   -1.09009335966298    0.00527978029416
N           6.62012909474048   -1.89079553586980   -0.42616806849473
C           4.19847622616016   -0.72333047444115    1.54435640072264
N           3.55888137103642   -1.23638016468932    2.34698223944075
C           6.81702083335513    1.55344731400029   -1.56852876509716
C           7.93093677860925    0.86521447369463   -1.04434990755450
C           8.19604314307450    0.49744757342257    0.26768580968972
C           9.41864943591650   -0.14640891103936    0.39673196991404
C          10.10614905171051   -0.27163440679309   -0.82786140092801
S           9.25244828376249    0.42452668145842   -2.12289799496877
C          11.32036059268204   -0.96160229009000   -0.58750849991926
C          11.39911481640514   -1.27560958747532    0.78030070773759
C          10.20226304318198   -0.78139043420729    1.44238316444395
C           9.86089276815181   -0.90761163727108    2.75661878646847
C          10.69398108697187   -1.55364070114345    3.69405073436838
N          11.37599133235904   -2.07281734772777    4.45536624240598
C           8.64504909645941   -0.38969087840293    3.25147380477179
N           7.65611618553562    0.04209304305155    3.63919948498643
C          12.56811952125246   -1.95952773838034    1.11403564105239
C          13.37696539185530   -2.16619216789920    0.01309822583251
S          12.68368083891191   -1.50860950361093   -1.45935471325325
C          14.64386093690768   -2.80938753951928   -0.01821027970962
C          15.44902913853061   -3.01700643532286   -1.10288782591800
C          16.66433753108700   -3.66920956040959   -0.79101907886547
C          17.69536570153496   -4.04920601171640   -1.67535572856774
C          17.64051138753748   -3.70791369897635   -3.08193332101307
C          17.24667893300847   -2.52851306953379   -3.64767299145884
C          17.31805866970439   -2.55165928381236   -5.05671899275134
C          17.75868766732804   -3.73303278878507   -5.58018716015688
S          18.10531126480457   -4.85392124946145   -4.30906362692372
C          17.92997302083824   -4.10739260051994   -7.00652748689336
Cl         16.88529716138055   -1.19402094528092   -6.02456931052460
C          18.76168873171291   -4.74777067452847   -1.12148085425898
C          18.85236886928516   -5.05492052028378    0.25896012944258
C          17.81533610288799   -4.68792290372261    1.14235492945821
C          16.75384909325787   -3.98317966571014    0.58915806655004
S          15.35020809521737   -3.42970693327172    1.45976666300810
C          17.87220792483086   -5.05116497225221    2.54315809982951
C          18.31281163633226   -6.22598525187502    3.08560786810991
C          18.25258250893674   -6.22847638792562    4.49463092092542
C          17.77188518469193   -5.07462928098593    5.04352219803170
S          17.36980105419613   -3.94747753494395    3.79426862021910
C          17.56289879585423   -4.74665689606731    6.47609706825918
Cl         18.76041704353748   -7.57863504618445    5.43444508077923
C          20.07406449815603   -5.68961529009752    0.57633102657477
C          20.88336450830261   -5.89591191012073   -0.50559177658370
S          20.17269722709986   -5.29458422761350   -1.98455100501825
C          22.15415144888092   -6.54338209591104   -0.49997034608101
C          22.77522497115697   -7.09733049758085    0.58517295928890
C          24.01504974946328   -7.70207631494158    0.28542997690360
C          24.88220906706864   -8.38221861732178    1.16714059699956
C          24.54286394648316   -8.62394780845369    2.55436314995429
C          25.37499951639007   -8.63119813851375    3.63818975182916
C          24.70895574714788   -8.95679155559155    4.83938642043354
C          23.37623704102829   -9.21537134527088    4.69639371105680
S          22.91942316643275   -9.04637761834115    3.03706257398194
C          22.37829027093272   -9.58460399213105    5.73056675825889
Cl         25.52701712919062   -9.01681314598980    6.35297148704731
C          26.08364366918670   -8.82970692073925    0.62527008763535
C          26.42024426135528   -8.67475447777814   -0.74592186108481
C          25.51912263587400   -8.05163391439200   -1.63951770026071
C          24.34888939041369   -7.55374390886586   -1.08639436847065
S          23.09048833764049   -6.72712339186719   -1.96182251314775
C          25.81364496064325   -7.97980588690354   -3.05363677738146
C          26.35548772180673   -8.95752614770046   -3.83988638419900
C          26.52953588197875   -8.54814420403926   -5.17897112108531
C          26.12713005495823   -7.26710694466657   -5.43043226034552
S          25.50496143561294   -6.54184013450175   -3.98683205271024
C          26.16453648964769   -6.51778736663285   -6.71059511616865
Cl         27.20860276850028   -9.59064269369385   -6.37214787707487
C          27.69215279967627   -9.19845360810955   -1.04214791558207
C          28.32228796353942   -9.77562924883063    0.03514284556149
S          27.34621371219323   -9.65433656801688    1.48725248658125
C          29.62326847661130  -10.31836922978446    0.12894185228339
C          30.46937358548664  -10.73336616056389   -0.85676552331976
C          31.92099313521516  -10.84153766404270   -0.53895794724730
O          32.42418376954389  -10.81443882909647    0.55482919602616
C          32.59209700746928  -10.93877617735988   -1.85985800186289
C          31.62216815529040  -11.02133787325487   -2.87559187741574
C          30.29518804316897  -11.04703818494698   -2.25553709442034
C          29.16723951315722  -11.54005027907514   -2.85682228834363
C          29.10494305665113  -11.95079914719457   -4.20558263669073
N          28.99643590982987  -12.29402911277250   -5.29475280407195
C          27.96050091702998  -11.78734041795687   -2.17147416442712
N          26.96200770220890  -12.02859852322834   -1.65970315859124
C          31.99232761271569  -11.07745513449214   -4.20771201018140
C          33.34712397060818  -11.05831491036145   -4.50758641417582
C          34.32291560622826  -10.99335555465116   -3.51460606304052
C          33.94039902597866  -10.93161192617533   -2.17214541640669
F          34.87408798826820  -10.86218659823743   -1.23058424233851
F          35.61598639571571  -10.98401477490034   -3.84478467235847
F          33.73026324612513  -11.09894299402586   -5.78470219187551
H           1.17179026005005    2.32161332161861    3.53830732706765
H          -0.80094156785973    5.75113841875141    1.93927944928820
H           0.73196275717970    5.74917149509289   -0.01301726923844
H           3.05507394976139    1.31055878246244    2.34798302167599
H           2.64517567201307    4.76474445026391   -1.22803052673085
H           6.97091648843768    2.06333085010686   -2.51505042293736
H           7.54119735901220    0.73558889990936    1.08581268098525
H          12.83450343485261   -2.29538589610672    2.10013899839415
H          15.16266030130304   -2.73165087658995   -2.09874114491650
H          16.96185633120741   -1.65664902560265   -3.08842100122031
H          17.05113640895771   -4.64158929073021   -7.37028269687516
H          18.79466240437019   -4.75531677852555   -7.13032552515886
H          18.05969488037808   -3.21196312518325   -7.61034285340037
H          18.62435658967833   -7.07823669785202    2.51053142893796
H          16.53980260496772   -4.98013965268301    6.77460334696743
H          17.73289272511589   -3.68754531468296    6.65501389215281
H          18.24119406876907   -5.33129038611699    7.09416456546338
H          20.35662973514514   -5.95679897207714    1.57612912741130
H          22.35660054187110   -7.06181789019628    1.57198711961294
H          26.41750555138081   -8.37583167534260    3.60337594027508
H          22.85097520302432   -9.59459238096485    6.70938691987865
H          21.96279417825951  -10.57167049755622    5.52847595884279
H          21.55387904020846   -8.87215353591894    5.74073258598557
H          26.56183564923193   -9.95386725192995   -3.49542941817329
H          26.65626035988843   -7.11953976423920   -7.47043805624832
H          26.70490453535001   -5.57968130262797   -6.59213800613918
H          25.15452895738828   -6.28221669611713   -7.04500313403817
H          28.16215866742128   -9.08404794613058   -2.00210229380053
H          30.05222290506054  -10.34037054855821    1.12661495261284
H          31.27959921062338  -11.12441873283106   -5.01461320260132
