126
 SCF done       -247.136588497793          0.000914360681
C           3.69418834228608    4.99450173612643   -5.72132035712341
C           2.52239625170010    5.68805515764968   -5.84509207560541
F           1.84176004929414    5.63511750182198   -7.00460744871126
C           1.99275002974238    6.46064364892133   -4.80299133398857
C           2.67073786507473    6.52471355099028   -3.61728660533581
C           3.88312745143930    5.82897315064761   -3.43457409459151
C           4.40647789286591    5.05057895801005   -4.50789917098156
C           5.62642408998910    4.35121934983834   -4.35108955479145
C           6.29067495822899    4.42363797528210   -3.15782503307002
C           5.75506067289840    5.19006037633579   -2.08207956427990
C           4.58696246576544    5.88345928073727   -2.20987616836588
C           6.63754047946518    5.06098910117692   -0.90437261504585
O           6.52529406111665    5.59991418193106    0.17343987545290
C           7.66306839908870    4.06047337699626   -1.30070037723038
C           7.56546891269492    3.85814291911897   -2.72498683484037
C           8.57961096295817    3.45879102669701   -3.56145409995576
C           9.90921623038345    3.30586790988198   -3.11749574415318
N          11.00930857318850    3.24063207568917   -2.79536539513390
C           8.42709870724101    3.23425179777581   -4.93987434762729
N           8.34612303890539    2.98121713065554   -6.05810219419461
C           8.34630367319841    3.39619381681814   -0.31716817074244
C           8.97147221674743    2.14279249700703   -0.34597079525385
S           8.88534243079465    1.03403659585193   -1.69311050442807
C           9.75758673424340   -0.21863280966356   -0.86132537606270
C          10.06475698942405    0.19892296420865    0.41946124863655
C           9.63601197197328    1.52014863303704    0.72148156772755
C          10.00503902696562    1.90434030545091    2.02796896508092
C          10.68263615713457    0.91225372764967    2.67791513651646
C          11.23960344661980    0.92392556638770    4.03547733653788
O          11.83969764093701   -0.00049047747233    4.52409249710384
O          10.99848264353519    2.08257040633156    4.66199102593013
C          11.51308037942293    2.18481797698116    5.98312790625285
S          10.90912526498174   -0.54091548992714    1.73804690677845
C          10.05084528040128   -1.41860524978973   -1.55340354873818
C           9.99677274328708   -1.56966828680556   -2.91329977217243
C          10.32397305846571   -2.86585710995888   -3.35699998222690
C          10.34729388239654   -3.34048216219248   -4.68804764852040
C          10.00703892252169   -2.50453359178498   -5.81888096798441
C          10.56770099788069   -2.52041536492868   -7.06632898725977
C           9.98752465624053   -1.57854132958410   -7.94130777269832
C           8.97417754034522   -0.84287075276745   -7.39545485795319
S           8.72645586147589   -1.31828097717463   -5.75156912245342
C           8.16153083002948    0.23400210826888   -8.00830650003214
Cl         10.52695439475729   -1.38497150256323   -9.56423126962556
C          10.71380154862388   -4.67228799710870   -4.85053482180767
C          11.01844326773240   -5.53287411186242   -3.76597813200889
C          10.97991690983241   -5.06348567576874   -2.43498576957240
C          10.65482356340803   -3.72096315989947   -2.27297905397081
S          10.53903184086332   -2.88791151069129   -0.74360763560273
C          11.21122601442429   -5.92596025230237   -1.29465972816205
C          11.81913672112713   -5.61299823406288   -0.11181998221135
C          11.80130661924879   -6.67738783930785    0.81557604781229
C          11.17522905477649   -7.80812467926982    0.37484330773762
S          10.60109988186020   -7.56310655710947   -1.23955321839942
C          10.94819580954768   -9.08815970191928    1.08847684510002
Cl         12.51128962607089   -6.53706476628160    2.37751953591036
C          11.33630422879165   -6.83608021206638   -4.20279388219752
C          11.23925655193772   -7.00979911262044   -5.55659045479822
S          10.79355497333317   -5.52528808275565   -6.36891500870066
C          11.44265856091310   -8.23201021235525   -6.27352537943228
C          11.47020389271620   -9.44060114848744   -5.61873241487281
C          11.64524840502468  -10.67366564305009   -6.23408916039787
C          11.82880280593215  -10.79029534586423   -7.67910993276806
C          11.83031745293224   -9.72796728161621   -8.51919762164891
S          11.62441137127707   -8.10383427347353   -8.00807048353414
C          11.96740332801081  -12.18390739798862   -7.92521218912434
C          11.87623742052461  -12.89855118745917   -6.72575003923853
C          11.95367662706048  -14.29227235892965   -6.93671853499819
C          12.11278063303658  -14.58939142758774   -8.25330494701417
S          12.17160918279407  -13.20562517132358   -9.29034731277773
C          11.68617031455925  -11.96064218535994   -5.64609499795004
C          11.55735489332935  -12.18084937702384   -4.26742780633601
C          11.72605987772808  -13.34952630103608   -3.57057876776632
C          11.54173151101249  -13.34429407511962   -2.18358237349940
C          11.66387776422132  -14.31596794221486   -1.21923503962896
C          11.67507305659529  -13.84097390296792    0.18619898576777
O          11.45742779531095  -12.70610992063235    0.56371951895884
C          12.04666307961672  -15.00546442510885    1.00566988104474
C          12.24808525969383  -15.08083751107753    2.35298994535347
C          12.62867457961107  -16.31534572828697    2.92512661028457
C          12.80575608568636  -17.44643296177827    2.07769860085535
C          13.19074958309234  -18.67467969783979    2.64908080308131
C          13.38049685229157  -18.75573715163965    4.00050356690213
C          13.20930733541724  -17.65546330294153    4.85098409650742
C          12.83908694656732  -16.45466015163049    4.31190726231380
F          13.74542972434058  -19.93004377147123    4.54927842155241
C          12.58902510392323  -17.33599616240457    0.68363455973608
C          12.20272518658008  -16.13498335989931    0.15339735180793
C          11.87287677731867  -15.74050399503354   -1.22066926474657
C          11.67000215050149  -16.64098624994824   -2.23957330333389
C          11.16119201888834  -16.36468770181843   -3.52034514376171
N          10.73042209515096  -16.25427302497974   -4.58057809069776
C          11.87598937442820  -18.03143497334389   -2.12174681491221
N          12.03116261982149  -19.16956008506873   -2.11423630632665
H           4.07329796624588    4.41216830892337   -6.54657277434343
H           1.06408757646514    6.98644703471274   -4.95826720789429
H           2.28245167084798    7.11285722932424   -2.79943814751090
H           6.00020940722985    3.76460343674473   -5.17572086793622
H           4.20194146683101    6.46697597817913   -1.38712503051709
H           8.29042954302678    3.85958520703227    0.66321491816806
H           9.79328710778661    2.85765218617682    2.47513523713567
H          12.60396929248869    2.14124406860403    5.96780452446192
H          11.13759368328639    1.36645750069640    6.60044828236297
H          11.17393850838910    3.14341899279135    6.36626703961409
H           9.75481398440609   -0.74932952624170   -3.56292890355149
H          11.39533549809696   -3.14323660777110   -7.35049356440503
H           8.29663925330956    1.17016060351083   -7.46430086048372
H           7.10211664372162   -0.01895231493108   -7.97749002497277
H           8.46284287909012    0.37770535998257   -9.04268890523520
H          12.29972552012495   -4.67439586934072    0.09216524728734
H          11.38067613902115   -9.03067330974205    2.08364451288159
H          11.39601778637994   -9.92982142312427    0.56041199427854
H           9.88082032646692   -9.29082188039661    1.18030415417736
H          11.65723187053532   -7.60876627842714   -3.53187091384194
H          11.31792749288313   -9.41884726139888   -4.55055437184979
H          11.96184297195922   -9.83025383565209   -9.58473276990511
H          11.85721227585731  -15.04690592327253   -6.17778692123439
H          12.19749132211981  -15.56142310313977   -8.69812424056656
H          11.29784046496773  -11.30732706612424   -3.68023858293015
H          12.02716783307599  -14.24455827823686   -4.08396854116940
H          11.31544334941449  -12.37094877605963   -1.75183650747890
H          12.11664754791450  -14.20903997460496    2.97639949611781
H          13.32863398031949  -19.54372259108092    2.02476211174064
H          13.37270584639284  -17.77958816712188    5.90979746280346
H          12.70130190413836  -15.59210518346026    4.94664205137829
H          12.74041644180244  -18.21166093371124    0.07383619350047
