145
 SCF done       -266.954712681173          0.000966691413
C           7.08829313928127   -1.67320873440447  -11.55847174945135
C           6.25719763122392   -1.95318113792109  -12.60706506010822
F           6.76533756359355   -2.03952158089690  -13.84970974942197
C           4.88043773802074   -2.15783455423871  -12.44155204759415
C           4.34602128071099   -2.07564461175654  -11.18604913030016
C           5.15712343424531   -1.79120567691225  -10.06824041596440
C           6.55474260922518   -1.58348161040696  -10.25794216913828
C           7.38728755571563   -1.28802520803029   -9.15357928158166
C           6.83845479675725   -1.20917951854703   -7.90202417198832
C           5.44364139887873   -1.43432273325367   -7.71636829683225
C           4.61604423590408   -1.71220651288119   -8.76571685952913
C           5.11941379319409   -1.33188497061844   -6.28048767450807
O           4.03300081103672   -1.40973719888074   -5.75517920594136
C           6.43319515255946   -1.17388196564339   -5.59317858577670
C           7.43129167079353   -0.89187325486255   -6.60618114165646
C           8.61006252697037   -0.22149211800943   -6.41496375918771
C           9.00923601790681    0.30796260631427   -5.17103222111662
N           9.35679235722535    0.80536712132974   -4.19678179802625
C           9.52399991657103    0.07378281060046   -7.44606246122456
N          10.31513911440180    0.29955743050565   -8.24696576810746
C           6.51341461089080   -1.39984483238906   -4.25832196698298
C           7.66099743908689   -1.67569115509662   -3.43905939282689
C           8.82006707311256   -2.27546405790639   -3.96098069411972
C           9.86765387974943   -2.55862766551478   -3.12339650279768
C           9.79110238400157   -2.25344333603839   -1.75167383803524
C           8.64877035831160   -1.66772257702499   -1.22337099480093
C           7.59053069680188   -1.40045820930000   -2.06539073704973
C          11.01634394811632   -2.68476955966700   -1.11749505805324
C          11.85451098245492   -3.24757075275596   -2.09589913694076
C          11.19254703770393   -3.20466485158301   -3.45302846798525
C          10.99935657634730   -4.61975361521853   -4.02950903445501
C          10.20221106814078   -5.53224414377076   -3.10496722216405
C          12.00079425813218   -2.34622827443607   -4.44534895701781
C          12.31226077640135   -0.95339546109477   -3.91167724457589
C          13.08897298124566   -3.74284940682212   -1.75411235157471
C          13.50215894685157   -3.71595492370867   -0.41330181648025
C          12.65637726065799   -3.14736110583685    0.54869556861991
C          11.42498997163292   -2.62756871878781    0.20790045076636
C          14.78813299262145   -4.27899684356416   -0.07100121734073
C          15.17513562869390   -4.67020764272567    1.15657433128357
C          16.44952533338381   -5.23687892222906    1.45886424047740
C          16.84272970980983   -5.75542309606568    2.66026117608204
C          18.16930725369125   -6.24712228844887    2.66884347684443
C          18.86271990441683   -6.85761395877402    3.73359464738047
C          18.19394270082032   -7.16804180872308    4.98080090342016
C          16.94190426062886   -7.68666920923308    5.14926212993909
C          16.60939885944792   -7.87394705628373    6.50832268269406
C          17.58629647508990   -7.50202957593618    7.38537082828462
S          18.96473084758692   -6.90924593035386    6.52188081788327
C          17.57753626830727   -7.55546192308216    8.86862222333983
Cl         15.09006016014617   -8.52251469225373    6.99942584642269
C          20.20111459715640   -7.15653659441461    3.51108805113379
C          20.85137238149445   -6.93225687709089    2.27199686250643
C          20.13433804309711   -6.39600382270754    1.18147602006000
C          18.81268390298213   -6.04243322851514    1.42224787840806
S          17.72775508832535   -5.32799591345694    0.26276516606247
C          20.76585849202755   -6.23714038520953   -0.11243769918996
C          21.60653510815140   -7.10850565180850   -0.74446173020032
C          22.05463013267751   -6.62430606976169   -1.99223560818208
C          21.57392830287554   -5.39114131793512   -2.32453019016458
S          20.52717577796586   -4.80552406186628   -1.07595718124659
C          21.84483733281154   -4.58287844436116   -3.53982733571189
Cl         23.12224198623758   -7.52967664902120   -2.99739764504568
C          22.21956041006420   -7.28475306875804    2.32453001992571
C          22.60734942880100   -7.79554911230237    3.53169062237894
S          21.28430338315875   -7.86279352847064    4.67853418714610
C          23.90242849496910   -8.23373415061272    3.91709445721265
C          24.28181015017233   -8.74287204791689    5.14477191760876
C          25.63739294199894   -9.06745786932527    5.17752209247649
C          26.29432498307921   -8.80123281139096    3.96339254869829
S          25.23991160923450   -8.15524536951307    2.78340833327578
C          27.66085716031931   -9.14784244419119    4.09924920997233
C          27.86454146848423   -9.64087863251704    5.40520239293352
C          26.60401852501420   -9.59886793476849    6.12511859366823
C          26.39341806878020   -9.95312941069888    7.42525696085906
C          25.12479253757584   -9.86483275951503    8.03567686513641
N          24.09440602233559   -9.80013825714384    8.53407960462652
C          27.44510884759622  -10.43455892174760    8.23342208610218
N          28.30982453615872  -10.82789960916546    8.87576475114481
C          29.18629686295384   -9.97857535709945    5.65640251059792
C          30.00704969195975   -9.74582050945339    4.56107774413665
S          29.09466709150643   -9.12834017481304    3.18535261956032
C          31.39087473371709   -9.97718165000324    4.42500314840462
C          32.32315109560765  -10.16994181709375    5.40132347316775
C          33.61079391571085  -10.82766590386221    5.03804388713077
O          34.03092204191093  -11.01862112638399    3.91968574396087
C          34.21174311486510  -11.23819900833227    6.32015945773554
C          35.32819070580282  -11.99051357923399    6.54620123491430
C          35.69359418527512  -12.29836475911713    7.87591576260711
C          34.88404597520155  -11.82652980151532    8.95037248086745
C          35.24586178388365  -12.15019626950404   10.27235445727951
C          36.36510489439109  -12.90268029434792   10.49651981239556
C          37.17629914615200  -13.37235566115680    9.45445739713575
C          36.83789826189589  -13.06986140601092    8.16487855782774
F          36.71363997766667  -13.21222809693041   11.75836468813235
C          33.73775773617041  -11.04063038782861    8.68696317403822
C          33.41418747688857  -10.74251175915841    7.39154386002273
C          32.32725316723217   -9.94347886504820    6.83017305327845
C          31.64169153333258   -8.97335868705362    7.51517125940647
C          30.76260182384099   -8.05436763851893    6.91140063973587
N          30.05972810649495   -7.26903139626750    6.45505823761759
C          31.81117271676228   -8.71733834501731    8.89206700763693
N          31.91383100727283   -8.46269834989926   10.00612583674065
H           8.14291191376338   -1.51738739778188  -11.72394037321252
H           4.27427845055576   -2.37545714416139  -13.30654891422602
H           3.28846091982429   -2.22968906533691  -11.03302061155844
H           8.44231018873421   -1.14082076259555   -9.32385829230499
H           3.56032172381829   -1.87057138060518   -8.60415158746567
H           5.55266979933229   -1.44451597150342   -3.75281056293581
H           8.85926833393878   -2.54961446410760   -5.00544985816014
H           8.58420650205671   -1.43499642633509   -0.17144365203739
H           6.69257753977048   -0.94554040378422   -1.67391376013960
H          11.98204533061421   -5.05940433460850   -4.21173481671778
H          10.48779471111842   -4.53934302812238   -4.99115396974197
H          10.70569445871851   -5.64245067643301   -2.14706071427616
H          10.09557926421023   -6.51747661979558   -3.55291500557897
H           9.20875696091096   -5.12697563718684   -2.92503392438683
H          11.43482538889683   -2.26063620816089   -5.37600764517760
H          12.93520060200920   -2.86427444633729   -4.67257082693154
H          11.39838592361359   -0.41393452043889   -3.67306911788557
H          12.85750485944603   -0.38387422564976   -4.66067024871185
H          12.92154961054372   -1.01295434888453   -3.01265378182703
H          13.74144252447750   -4.17252438357950   -2.50075106061953
H          12.98456406626120   -3.09517066096152    1.57530546283526
H          10.79097683083469   -2.18418042766552    0.96083893394820
H          15.47590798480477   -4.42528500894446   -0.89565806012785
H          14.50211379291062   -4.59447615609831    1.99978675971319
H          16.20486833538401   -5.76316202383427    3.52503936713995
H          16.29363193613419   -7.96985325245310    4.34071181758766
H          16.64498640431063   -7.99389535714783    9.21507567571047
H          17.67567678930772   -6.55521131267764    9.28965638113524
H          18.41014876546685   -8.15513980514507    9.23416747739136
H          21.86548561134223   -8.07906020757943   -0.36355798527872
H          22.46870436132919   -5.14986604463601   -4.22624121455453
H          22.35891101625383   -3.65814054743493   -3.27852525968090
H          20.91413888647240   -4.31838292772377   -4.03979494741031
H          22.90551423254714   -7.14023572608337    1.50945271314601
H          23.59192241288492   -8.86077760763574    5.96102065333939
H          29.54234253923452  -10.41565615577546    6.57130136686032
H          31.76408187659577  -10.08513299983271    3.41102930985485
H          35.92490782572488  -12.34887052916377    5.72082162666840
H          34.64642663716512  -11.80223761958340   11.09899731582039
H          38.04771065752811  -13.96157470623728    9.69229013351082
H          37.44677651616121  -13.42108893355877    7.34541916859001
H          33.13592736364030  -10.70546774520299    9.51677160748480
