93
 SCF done       -186.628832919360          0.000881347369
C           4.14741658113188   -1.34795484354734   -8.79175884146117
C           3.39182035717819   -0.81889380985030   -9.80086434406914
F           3.50387952984951   -1.31927996349294  -11.04431789617762
C           2.49378351019290    0.23695502452438   -9.59300817239462
C           2.36698779713054    0.76001354479554   -8.33628094472544
C           3.12290259817987    0.25409259158068   -7.25887220587672
C           4.02828168925449   -0.82255116664976   -7.49058493064038
C           4.78981726615456   -1.35422615302150   -6.42378462096926
C           4.65181121281863   -0.82000352072138   -5.17205134702925
C           3.76034316295186    0.26933005574625   -4.94901464818072
C           3.00620897094286    0.79445192005109   -5.95839974432479
C           3.83705539098744    0.68184577476346   -3.53376127146951
O           3.19162351029809    1.53364175183707   -2.96806859560250
C           4.94163393114976   -0.13236921196028   -2.95360365839071
C           5.26677670009541   -1.17864960591895   -3.89780583318847
C           5.79118477641201   -2.40820971398804   -3.59259873090203
C           6.10739312903212   -2.80825055887232   -2.27841604631688
N           6.33649283793984   -3.17205393937578   -1.21373496614536
C           5.98314515923595   -3.43413638579685   -4.53922174070228
N           6.17096974410899   -4.29498976716547   -5.27480737533975
C           5.50816215129178    0.24464337528414   -1.77384585721100
C           6.78443034038358   -0.06966987401787   -1.25741232963766
C           7.19305665949467    0.08994879440191    0.05868651576301
C           8.52444909212384   -0.26276958926609    0.24665835225777
C           9.15719236163856   -0.65859498692793   -0.95195064434042
S           8.10992104866164   -0.61219108019614   -2.29054889003420
C          10.49970313896618   -0.98923535193560   -0.66834141220868
C          10.72442159553762   -0.81306612311974    0.70978944235120
C           9.48871919121422   -0.34993380360962    1.32783915287356
C           9.28751675657480   -0.06522733726860    2.64661951218754
C          10.31404425635074   -0.19879811040620    3.60497551822407
N          11.14824596153477   -0.30073699763623    4.38520621809263
C           8.04464672566974    0.38696977782244    3.13852728015785
N           7.04100567626970    0.76394589026451    3.54443424932368
C          12.02465203239918   -1.12774619457019    1.09155029217101
C          12.79351971489230   -1.54443958406170    0.01514704296570
S          11.89178906927786   -1.54312340133273   -1.49236800558976
C          14.14665551536833   -1.95460302332405    0.02952196598621
C          14.90399878178309   -2.39293902198772   -1.04328659192216
C          16.19909343099465   -2.73440738134437   -0.66506130697633
C          16.43489673049629   -2.55147474016054    0.71586977441427
S          15.05744733129535   -1.95895951438645    1.53721004232683
C          17.75983906060261   -2.93177084646729    1.00332448779244
C          18.37250331741844   -3.36423576882574   -0.19472315896614
C          17.40752134379575   -3.24531159989797   -1.28076945693188
C          17.60855691882159   -3.54906403041689   -2.59571203545719
C          18.84193386492020   -4.04462299439655   -3.06918142414896
N          19.84434003646725   -4.44757345117883   -3.45314529516573
C          16.59476158792561   -3.38063063050788   -3.56235409413859
N          15.77095179928599   -3.23378545606765   -4.34614385433431
C          19.68209903530168   -3.77589160832959   -0.02714012241709
C          20.10619724144077   -3.66674707749194    1.29959153838065
S          18.82409102866938   -3.03042323140275    2.33681971261278
C          21.33915770713164   -3.97804834761510    1.88295172785592
C          22.44714697981684   -4.53193146481392    1.28119189479921
C          23.66821642941135   -4.81761578130649    1.94021949828029
C          24.61878527324334   -5.38449020756056    1.14505011520226
C          24.19985397543945   -5.58109699254323   -0.18842479519199
S          22.56274771527366   -5.01239101911259   -0.40005985275165
C          24.90923345078782   -6.14340480633891   -1.23622260551872
C          26.22939273468441   -6.64616810472914   -1.21655351043847
C          26.64006670021771   -7.15180451208523   -2.41275899096833
C          25.66717270651030   -7.07607509680609   -3.44038163218962
S          24.20588474612799   -6.32785421338781   -2.82493948243269
C          25.81433381324051   -7.52112363054314   -4.73356569468471
C          24.81360642040613   -7.42449299149957   -5.70784667353486
C          24.91345094362731   -7.86904958199252   -7.00482831442459
C          26.10294254674422   -8.52823347597553   -7.57668184453781
O          27.13733437411531   -8.76368968069731   -6.99459141542556
O          25.89543105834856   -8.84815198333126   -8.86274154163659
C          26.96779224093258   -9.49283708290831   -9.52820536916518
C          23.81750300412363   -7.70140250907768   -7.87127583858439
N          22.91221840380201   -7.55453543563441   -8.56223063533798
H           4.82580697361659   -2.16369389168116   -8.98708143976621
H           1.92375360227453    0.61312920274563  -10.42763874484705
H           1.68195589417215    1.57380038784894   -8.15184057486223
H           5.47334225544390   -2.16398824252731   -6.62536958300405
H           2.32874150453354    1.61338873812837   -5.76837417323344
H           4.92986417625153    0.95205602881965   -1.18669114760747
H           6.52386046318888    0.41889451509728    0.83324054461009
H          12.41158734397805   -1.06813105850094    2.09311382028479
H          14.51249621508622   -2.45728526877920   -2.04279155595232
H          20.31055704899280   -4.13369384321126   -0.82011616926325
H          21.43184581195963   -3.76607073572101    2.94063840954634
H          23.80407697924663   -4.59544223000489    2.98388901131887
H          25.59935068445026   -5.66665474388719    1.48279237377260
H          26.83486060201543   -6.62225658246501   -0.32849439909217
H          27.60943258890415   -7.57988479263978   -2.59536026707190
H          26.75595532642756   -7.97423980744202   -5.00845952561869
H          23.87637871406638   -6.96027523944617   -5.41669706683141
H          26.63083552887993   -9.66359592455204  -10.54708786795235
H          27.20525184826802  -10.43967240093605   -9.03782040175476
H          27.85776456221172   -8.85946424322856   -9.51794698648344
