108
 SCF done       -216.025939227056          0.000432691702
C           4.25570601229635    8.31114038199990    1.20957352672566
C           3.40101638367696    9.09135085210271    1.93786242004903
F           2.89328168390241   10.20925788769535    1.38813297397666
C           3.02609991512893    8.77314111679492    3.25022072430040
C           3.52937512547255    7.63944723230731    3.82540170397322
C           4.41227827561015    6.79719605114801    3.11929268106425
C           4.78646481842540    7.14199305390275    1.78761414927331
C           5.68259850463999    6.32033530603858    1.06367964235282
C           6.17796506485721    5.18987475935179    1.65336085435710
C           5.77769707047178    4.83400478496381    2.97405212935425
C           4.92575253902081    5.61525925350471    3.69948408626029
C           6.40085359419506    3.54839771830077    3.34018157454181
O           6.33199070555829    2.95670211678097    4.39339458959369
C           7.09877909551203    3.08790804562420    2.10758305395920
C           7.12240619266780    4.18500259580958    1.17072405108836
C           8.02618133277534    4.37845937469098    0.15522010994164
C           9.09400927533147    3.50453028780789   -0.12133615033552
N          10.00108347078420    2.84027113835967   -0.35646543072629
C           8.04746777959757    5.51980579395545   -0.67160592713803
N           8.10883983389424    6.42009015378025   -1.38093311664716
C           7.52424924838329    1.79087845317470    2.03329574148894
C           7.86249322809379    1.03474283629747    0.89892413901577
S           8.88584396540470   -0.36779197638936    1.07826026552691
C           8.92627067370726   -0.68915052950141   -0.63020842140059
C           8.12672987190917    0.23084893366938   -1.29285536651496
C           7.50832043318624    1.18828451690216   -0.44632178698957
C           6.64299115692511    2.04161997466097   -1.16758330307678
C           6.65386159053814    1.77221231696361   -2.50509077998538
C           5.88625670495302    2.49807369834787   -3.52367779243349
O           5.12476716398599    3.39998228118013   -3.27639461031386
O           6.14384603482881    2.03062154960986   -4.74732701945744
C           5.46697842074667    2.66854924425197   -5.82030326091771
S           7.69622021621345    0.45285992334522   -2.95615534199602
C           9.69254865747344   -1.74582839052912   -1.17176516126903
C           9.89116928709296   -2.04144011829848   -2.51198420366870
C          10.70454267658858   -3.15855655092414   -2.68073092879179
C          11.12403646289908   -3.72283370365227   -1.45988287456968
S          10.52667373421679   -2.86934400639718   -0.10847065666497
C          11.92868748091528   -4.85102844065040   -1.73848534790680
C          12.03079320404235   -5.00160476735086   -3.13303824848404
C          11.26499935665445   -3.94029899337477   -3.77106754743316
C          11.10793917119762   -3.72693570971661   -5.10861900564820
C          10.32767535296402   -2.66561221091626   -5.61523681985500
N           9.69259288510507   -1.80792123959956   -6.03363287121200
C          11.71558730876063   -4.55792625157686   -6.07369809059776
N          12.20994632615141   -5.23516692752429   -6.85560780725968
C          12.80202962678669   -6.09984010355641   -3.50599519461011
C          13.28576634346290   -6.79579797438379   -2.41046483679461
S          12.77665869144485   -6.06490701871621   -0.89001599963235
C          14.08699867503793   -7.97304539801119   -2.40562238385124
C          14.44402494831829   -8.61105597980734   -1.23832211482152
C          15.20454575998113   -9.77176632762346   -1.15636883539738
C          15.77602745800920  -10.36931293008835   -2.37028685805924
C          15.54857644663241   -9.91371508353586   -3.62290807303757
S          14.56680329295568   -8.55925892336013   -3.98850276829384
C          16.55685950707133  -11.47128604791254   -1.92703897644405
C          16.47796181604558  -11.56971183441313   -0.53835015261406
C          17.21207532585979  -12.66792959778290   -0.04074446067566
C          17.81989091281937  -13.35533069646467   -1.04339760072766
S          17.52514841637259  -12.70816112306680   -2.62080486364913
C          15.61698602117467  -10.52847789607995   -0.03466588107024
C          15.26892621790735  -10.46494777597063    1.32835369838682
C          14.30100364935675   -9.71683780732594    1.93820158856470
C          14.00592890353734   -9.75289834956023    3.31467092508088
C          14.30246615937478  -10.67778387282585    4.28332210859135
C          14.24371895657191  -10.23786296019089    5.70215211301903
O          13.78179234072246   -9.19794500672297    6.11858627994064
C          14.90567833583676  -11.30574664357459    6.47508962075101
C          15.20300545115495  -11.34664976835676    7.80589303176915
C          15.86802567239585  -12.47863688358383    8.32881850910758
C          16.21920244435044  -13.54641848690797    7.45304682283663
C          16.88692738146582  -14.66934829386154    7.97873858381517
C          17.17843447700846  -14.71281791306220    9.31372501347868
C          16.83948737744831  -13.67449126573198   10.19139966591227
C          16.19329536604547  -12.57564429742532    9.69696117119040
F          17.81488325185592  -15.78652648118861    9.81784064442599
C          15.89197984242043  -13.47814948059503    6.07800601869829
C          15.23714260667851  -12.37716428998519    5.59755941828462
C          14.73895985711853  -12.05142760999160    4.26041665058837
C          14.51963741880893  -12.97792709803758    3.26811593938832
C          13.79129305782210  -12.71467854336123    2.09310768943142
N          13.18034805343982  -12.55823090030719    1.13333708147959
C          14.95022601379070  -14.31670824987273    3.32837385064299
N          15.31188099216401  -15.40670864045963    3.29985567410557
H           4.52509793926970    8.58827057491834    0.20241391039959
H           2.34922689719949    9.42743723170920    3.77635211447668
H           3.25412463388267    7.37249825418913    4.83468199182310
H           5.94317792053935    6.59871041944658    0.05471944974454
H           4.64344355738939    5.33434467574267    4.70305454787697
H           7.56552298054939    1.27057908859188    2.98573648931402
H           6.01147727237042    2.80064680870799   -0.74499612265866
H           5.71749557538291    3.73088440369370   -5.84571649197354
H           4.38664431758124    2.56417482231445   -5.70076420918058
H           5.80375543622271    2.17197653004014   -6.72615496833574
H           9.46505140466418   -1.46039128989033   -3.30866842378438
H          13.00460274112574   -6.39427617514485   -4.51996097281486
H          14.10275243208591   -8.14646295431430   -0.32510964276039
H          15.96955298094417  -10.38824677549771   -4.49527675756274
H          17.29182282442644  -12.94671590221902    0.99442475743646
H          18.43733342770808  -14.22801204053367   -0.95839424783014
H          15.86023570089893  -11.11581747939825    1.96115839670952
H          13.72856279697523   -9.00503431044596    1.36463745538990
H          13.50422148447698   -8.87276562936801    3.70932796674674
H          14.93257185593166  -10.52628260965153    8.45366862889037
H          17.15960100807009  -15.48967258859739    7.33323384875240
H          17.09475788776703  -13.76459784491134   11.23531733378774
H          15.92153188174505  -11.76251042176349   10.35318646922680
H          16.17517068633627  -14.29997105055673    5.43958483096614
