108
 SCF done       -224.919796945642          0.000947568437
C           0.14722720348901    2.81183083468919    2.01985274550648
C          -0.86609274364925    3.72987759903970    2.02073628844730
F          -1.74708208988416    3.74261540317067    3.03637864367508
C          -1.02856907778901    4.67154571432053    0.99515866365482
C          -0.14145427721346    4.67650194896393   -0.04492150373440
C           0.92375679189950    3.75396947732004   -0.09520191460545
C           1.06879909309093    2.80062947550614    0.95505110887559
C           2.12207695786675    1.85674906609753    0.92082368324408
C           3.00180738499760    1.87304170025280   -0.12702216877832
C           2.86796717368890    2.84562115561540   -1.15973625263063
C           1.85441237644556    3.76024820727018   -1.15781859239303
C           3.97134500313925    2.68644299472324   -2.12217746656008
O           4.16376362041291    3.29376937770447   -3.15003152271284
C           4.86013582775288    1.64216503407901   -1.53155465014994
C           4.14550335498171    1.01819459088877   -0.43906852115268
C           4.32506233048130   -0.25137831712667    0.04624739672546
C           5.29385250503094   -1.14818621177762   -0.44224444476240
N           6.05977221970297   -1.91211719079497   -0.82766976121590
C           3.49552625141582   -0.84154641268360    1.02343576675473
N           2.84781606208029   -1.36889046878397    1.80989401368971
C           6.12380652927735    1.52289181982894   -2.02602137248411
C           7.25980930968469    0.90938370789514   -1.45804226269484
C           7.50032374923594    0.53064607356744   -0.14414018050194
C           8.76097187707973   -0.02770850830849    0.01933189909861
C           9.50350566136899   -0.06606746272281   -1.17878318885695
S           8.65142032801597    0.59573687975696   -2.49192641246408
C          10.75560671488623   -0.66862790588549   -0.90764601947539
C          10.80342015887429   -1.02443319258165    0.45214822354453
C           9.54769004307683   -0.63688467625984    1.07798840515255
C           9.16838850992294   -0.82392537491545    2.37434184259814
C          10.01449992581058   -1.43772518913403    3.32162354334789
N          10.71034122742922   -1.92767840763932    4.08968461295710
C           7.90287840222263   -0.40368272805169    2.83657629787297
N           6.87360400806584   -0.04966560595986    3.19684417777802
C          12.00692199350179   -1.62908228767093    0.81261753136529
C          12.87701031421444   -1.72412607752456   -0.25955352661791
S          12.19181420932622   -1.06801286846245   -1.73866180259639
C          14.19407681525891   -2.24822767184836   -0.27668719565775
C          15.08357762228026   -2.21588841957203   -1.33593132811407
C          16.30655349480918   -2.79515012185202   -1.00681959197777
C          16.34642928030942   -3.28445906845590    0.31109398470568
S          14.87883284637165   -3.02034140941148    1.14604553172456
C          17.63229838836795   -3.83456785741324    0.54809237337634
C          18.40567366325453   -3.68019875590876   -0.61667347956952
C          17.59730596052413   -3.02815461781607   -1.63375833960191
C          17.97263566245239   -2.69634149354270   -2.90170679022679
C          19.26804599662778   -2.96486766469448   -3.39295834199781
N          20.32131157632037   -3.18105975567724   -3.79038587503636
C          17.09129303147668   -2.05733189784845   -3.79971711042823
N          16.37411902191122   -1.53482231895831   -4.52559595666891
C          19.70235060327618   -4.16913384078006   -0.47824213774073
C          19.92226388210744   -4.70336409735681    0.77886027894048
S          18.49902961350477   -4.59989796695832    1.80592632021236
C          21.13057826926022   -5.26162235116839    1.26603420271889
C          21.35076991231882   -5.89914837404518    2.47525675319308
C          22.67836104679611   -6.29927458971906    2.61663069635657
C          23.47381859836556   -5.95388561312812    1.50988384527074
S          22.58648514137834   -5.15533668520000    0.28885836693344
C          24.79977991332467   -6.37985432096141    1.75417297387402
C          24.84845965185076   -7.00299801176309    3.01837459805577
C          23.51532594735831   -6.97773597853765    3.59743021393374
C          23.12613704307518   -7.47760457950647    4.80455939444041
C          24.03087952135015   -8.10972348450243    5.68449060378089
N          24.76308852394440   -8.61540472714800    6.40686440166652
C          21.79227574829433   -7.38555527548805    5.25649540300569
N          20.70527417381242   -7.30690075291528    5.61224441677749
C          26.12755897152338   -7.43104589518529    3.35455856659838
C          27.05424995237663   -7.16800732017115    2.35453475610015
S          26.31552385301451   -6.33383545545766    0.98727900433794
C          28.44412168664107   -7.40391582753573    2.44433140998009
C          29.40460048823596   -7.34205134053814    1.48201424958742
C          30.82233355648405   -7.11061041714161    1.88465012957993
O          31.28731748410980   -7.23164389840137    2.99358510994761
C          31.49369889813487   -6.63612110072379    0.65932773768258
C          32.76033713899118   -6.15043089969655    0.50610499844473
C          33.17991685470790   -5.71011008448868   -0.76921977476622
C          32.27212510457966   -5.77759132610034   -1.86670478448363
C          32.69360835257287   -5.32342875213612   -3.13136972766599
C          33.96121576263475   -4.83309251032020   -3.28029265111591
C          34.86970997458130   -4.76241337066765   -2.21517985942212
C          34.47653359850197   -5.19753198531647   -0.98028242911725
F          34.36495930426062   -4.39797243627423   -4.48676751671503
C          30.96946611543968   -6.29710026587096   -1.68204196650126
C          30.58997268660895   -6.72486933384718   -0.43928837854863
C          29.34680670468467   -7.32377975060797    0.03653194496528
C          28.44469059664721   -8.00014364858486   -0.74247502210323
C          27.42093967860427   -8.80603659835244   -0.20405279590824
N          26.60222662060455   -9.49550344037661    0.21102991953737
C          28.50198936732565   -8.03924747870001   -2.15002798633202
N          28.50046337275403   -8.08391653345429   -3.29676734740102
H           0.23930033322186    2.09890947598401    2.82418486235964
H          -1.84786198228717    5.37072326118397    1.04941485977210
H          -0.24525715704628    5.39258885677905   -0.84616187741348
H           2.21457847961218    1.15270235250479    1.73255556609269
H           1.76537457573166    4.48197433057640   -1.95587046797727
H           6.28525890355200    2.03552512596357   -2.97019611066889
H           6.80065830982748    0.70235963058792    0.65311103052386
H          12.25527869469782   -1.97948933284983    1.79851372424872
H          14.83986783246587   -1.78047970435860   -2.28835121088582
H          20.45847603937941   -4.14740629702058   -1.24240246375284
H          20.57248147461737   -6.05720058140180    3.20018579587260
H          26.39379248348602   -7.92930517212592    4.26932805002858
H          28.81608024017943   -7.56326520828439    3.45255332551494
H          33.43438157783488   -6.10016317236371    1.34801480649838
H          32.02233009510071   -5.36692084976220   -3.97474821728436
H          35.85701357140596   -4.36657381280610   -2.39284869317591
H          35.15846266811585   -5.15258790786929   -0.14455516337515
H          30.29830785584083   -6.33168179594656   -2.52586689522204
