107
 SCF done       -218.477849710434          0.000977552143
C           0.20309325094088   -0.02916502053390   -0.15205625483956
C          -0.97090800100323    0.65539460353134   -0.00246538618061
F          -1.98777421284207    0.08760258887189    0.67011293821573
C          -1.16302010074892    1.94136759104243   -0.52598675620393
C          -0.14065146029461    2.53643201553117   -1.21132429908788
C           1.09235872806138    1.87709637305133   -1.39384939937316
C           1.26639618649253    0.56806533210417   -0.85630259356661
C           2.49158258490351   -0.11678445967412   -1.03164384287799
C           3.50660523112527    0.49336823284418   -1.71654266998793
C           3.33605645316294    1.81062027055727   -2.23195132423631
C           2.16052332253354    2.48961456969664   -2.08699560194270
C           4.59475517890015    2.25300138213513   -2.85950508379275
O           4.81501879046790    3.28473313421978   -3.45048770602684
C           5.58234638202326    1.17710191520079   -2.55356666267333
C           4.85033831187614    0.03214240684285   -2.05607176509424
C           5.22841486344692   -1.28374807288905   -2.12715654050482
C           6.45867533116815   -1.72020992914110   -2.65469495453258
N           7.44257391629545   -2.11613690069919   -3.09507575575615
C           4.39189156561049   -2.36012964185519   -1.76359890197871
N           3.75225421261371   -3.27139986064724   -1.48633753480776
C           6.91084119086178    1.45305041313134   -2.68474278812685
C           8.00579222835426    0.78830539037301   -2.09419477836996
C           8.00972997650081   -0.08102459053661   -1.01212028944543
C           9.28745264061511   -0.51097691702410   -0.68688661235062
C          10.28476384900255    0.03979028083693   -1.52006382446717
S           9.63642371729295    1.09343657744299   -2.68837277810650
C          11.53908934393452   -0.47402767518291   -1.10898032506710
C          11.33406632902069   -1.35107619973928   -0.02799434437523
C           9.91071511792724   -1.41129709477860    0.26431450994812
C           9.28251659855829   -2.17301785299853    1.20545777963601
C           9.99185949120174   -3.02817929648954    2.07415761009684
N          10.57564136059623   -3.71590557181132    2.78182413460483
C           7.88013926584513   -2.14245469480956    1.35817164387365
N           6.74022417124502   -2.10104393163176    1.47560970674403
C          12.51492057246969   -1.90705794683391    0.45509994363099
C          13.62228518943194   -1.45852608952522   -0.24518284382851
S          13.19220690438251   -0.33692916298775   -1.52651478296866
C          14.97422186200884   -1.80892014484517   -0.00821154164522
C          16.10427266803445   -1.36692896987783   -0.67173237584354
C          17.27025837219495   -1.92087543994881   -0.14321526468910
C          17.02091303525405   -2.79827353288312    0.93090062501942
S          15.35835882947609   -2.93688041117697    1.28824994596541
C          18.25528418308650   -3.30048496456212    1.40495280148571
C          19.28698004814922   -2.75201555780214    0.62167183408647
C          18.70125652109285   -1.88488629814373   -0.38874103567340
C          19.36743870432634   -1.20387872333542   -1.36624091975583
C          20.75092165261057   -1.35891707834895   -1.59299454021005
N          21.86644496116535   -1.49469854867933   -1.82272043899834
C          18.71966569173981   -0.29402037553706   -2.22705886508753
N          18.20993258253055    0.48123704856766   -2.90124652080204
C          20.55634067213821   -3.11600255477536    1.05221207701471
C          20.51046914173730   -3.95398617741213    2.15805363436333
S          18.85872118589164   -4.29958953932743    2.65296338945185
C          21.61771471942366   -4.46493168104289    2.89412055154326
C          22.90603055891810   -4.06523797693928    2.61435860270240
C          24.03368087937294   -4.45179600437123    3.32682652719847
C          23.95675384460309   -5.48978863857006    4.35893844253436
C          22.79398744371150   -6.02542985007063    4.79601202760483
S          21.24940809284844   -5.57397075502222    4.20148125117907
C          25.30442651091802   -5.74651617156650    4.73741804658329
C          26.16450681875439   -4.92032037831482    4.01030576025813
C          27.51764786628622   -5.12313462594994    4.35660101770954
C          27.64796626623138   -6.08043016879674    5.31252134900020
S          26.14626262223008   -6.76561070251787    5.83429474138492
C          25.38582105882980   -4.07127561586428    3.14684568960098
C          25.89871806280570   -3.06462538949308    2.30536146538416
C          25.15817990817051   -2.02875561983442    1.80139775293333
C          25.62501405758197   -1.13213493635816    0.82970380278965
C          24.82492428930607   -0.19474756991419    0.21770604893812
C          25.22114363307395    0.74039862873329   -0.81270207466515
C          26.49211751522599    0.96718952036601   -1.27986497229146
C          26.81078677289112    1.90852907480760   -2.27996288058633
N          27.13803051232242    2.65976342525766   -3.08466635551128
C          27.66057682304313    0.32449716411298   -0.82281075941793
N          28.66036322625113   -0.14051503027981   -0.49907821249979
C          24.02290599250919    1.44433902341676   -1.26073089898807
C          22.92619969865328    1.01398956834943   -0.47709168231694
C          23.37440150614859   -0.04032494272787    0.45081827486900
O          22.65503808945268   -0.67090155193788    1.20728400440656
C          21.65508519722988    1.50557298754349   -0.64779116575319
C          21.44579510813495    2.44367895812663   -1.66270349286660
C          22.54514926205778    2.85342698877212   -2.45405226911866
C          23.83631294692118    2.37593520651359   -2.26452544278244
S          22.06383990577299    4.00065054938375   -3.66657525148240
C          20.41642739106967    3.91255396257171   -3.10333392378540
C          20.23321177655544    3.07207033503925   -2.05800336363317
Br         19.09624947791725    4.94122773376707   -3.94232372851406
H           0.31520081879279   -1.01917863196646    0.26150102778738
H          -2.11126390790135    2.43273805731108   -0.37609160452630
H          -0.26490702695638    3.52677551018869   -1.62283091567625
H           2.60278105809845   -1.10098241218750   -0.60477331768770
H           2.04757849231234    3.48438488926717   -2.49121489555735
H           7.13889849016369    2.34755618187993   -3.25612931492717
H           7.12165052262995   -0.34116958471060   -0.46609842365109
H          12.58393765339247   -2.60054647298835    1.27402745352813
H          16.06299126843454   -0.67290211195506   -1.49236441833539
H          21.46331691258240   -2.76147669753929    0.60133440425511
H          23.03351397291712   -3.40456356663132    1.77388138421999
H          22.75302258259634   -6.77238270445644    5.57296538233716
H          28.34967856847484   -4.59671672789383    3.92601748620922
H          28.55300744933217   -6.44082131482639    5.76107071143854
H          26.95300745006519   -3.12142499253210    2.06046018318100
H          24.15538315660610   -1.87181440357032    2.16152824528429
H          26.65685803226302   -1.22624496690339    0.51756206695734
H          20.84235128160940    1.17164582758850   -0.02019591897048
H          24.63876764338194    2.72279098936825   -2.89388383263614
H          19.27985916368752    2.89304671960073   -1.59524926426933
