126
 SCF done       -256.023732364669          0.000489101258
C           1.37841392408995    4.89902580158284   -0.52301337236877
C           0.06277439193634    5.15574456812973   -0.25357473648727
F          -0.73043633581230    5.63896276599650   -1.22614573305734
C          -0.50324016590610    4.93402019271494    1.00945996848240
C           0.28662118157740    4.44280615471988    2.01129323363027
C           1.65013080034423    4.16067933128380    1.78897669345805
C           2.20750756213700    4.39539408988116    0.49790808829751
C           3.57546659866741    4.13084334117965    0.25307640522836
C           4.35612951360169    3.64742716507465    1.26753514757140
C           3.78848632685203    3.39387607802298    2.54954392790906
C           2.47336747465205    3.64601705076679    2.81514652997763
C           4.82263927204974    2.83168653845012    3.43552415531165
O           4.72874044566186    2.54014218426277    4.60577867644943
C           6.01980940506952    2.63539007552501    2.56733922271028
C           5.78007886487286    3.32199210678357    1.31681641952382
C           6.72349870683333    3.82080450016170    0.45574541652423
C           8.11174012771702    3.69791154762509    0.65345378748673
N           9.25030247259926    3.64055886968060    0.79232750618708
C           6.41657020178121    4.60360419776688   -0.67723364791161
N           6.22353322327977    5.24771394946002   -1.60695360030891
C           7.02731423002240    1.84198231014841    3.02846810255805
C           8.06135030047603    1.20209923633381    2.31440953587390
C           8.15585080644048    0.92259941123884    0.95779920968780
C           9.32579513459444    0.24582448197177    0.64074932095578
C          10.13888211104766   -0.00126889315224    1.76573159965820
S           9.44674954870220    0.57733234843285    3.20588007704835
C          11.31166777887017   -0.66622734312320    1.33156553900831
C          11.24392554420278   -0.83893975881743   -0.06241192681546
C           9.99745583285484   -0.26305020208736   -0.54308513320862
C           9.55626847357558   -0.18339786416114   -1.83122830663591
C          10.29634506080837   -0.70846291677900   -2.91112887944596
N          10.89990876082414   -1.14434514264832   -3.78299696713629
C           8.32579487646320    0.42922522414247   -2.14980765454770
N           7.32002200662829    0.92414389421864   -2.39118107498099
C          12.36312113318110   -1.48813066883410   -0.58393315464576
C          13.27793154545560   -1.80913818991517    0.40301785078942
S          12.75003500741483   -1.29965889819813    1.99507876936469
C          14.52591522815478   -2.47764920348073    0.25921630967219
C          15.08414381682964   -2.99827600058494   -0.87641231173913
C          16.33731546574976   -3.61753270970229   -0.65697254747420
C          17.17481621624487   -4.24546016500799   -1.60473558122994
C          16.86549254843934   -4.20775259090964   -3.01821472616651
C          16.37935914827540   -3.15485456287865   -3.74155313935359
C          16.20734760120216   -3.46498868756386   -5.10732161177317
C          16.54999333123145   -4.74407584443199   -5.44186604576942
S          17.10900770047168   -5.59578718200835   -4.04372160846669
C          16.48336276068289   -5.40727164419809   -6.76760787663485
Cl         15.61769975319708   -2.31390073641035   -6.24416944019734
C          18.30630963894379   -4.88107072304824   -1.10507778773162
C          18.67077321473386   -4.85355288558439    0.26440448306064
C          17.88159572371750   -4.14958783875525    1.19778153864401
C          16.71161230320650   -3.58273443412706    0.71025037328455
S          15.53678140069075   -2.72866174117254    1.66652418919981
C          18.29636396403619   -4.02201548333903    2.57885292835351
C          19.55707062493414   -3.79106010412306    3.05210026643569
C          19.60439296384982   -3.71352448604215    4.46039713255148
C          18.39848934914908   -3.88682699424849    5.07588529296490
S          17.15998324670797   -4.14406366236300    3.89408459156128
C          18.08217873208445   -3.87044625426046    6.52577609041071
Cl         21.07263108578134   -3.42273616172576    5.31342286250879
C          19.83739498154866   -5.60873492711669    0.51573612533144
C          20.38026130683074   -6.16795642555550   -0.60768668202691
S          19.46313571506617   -5.78171205633308   -2.04833858852823
C          21.53453373429441   -6.99324079963416   -0.67998590974055
C          22.09626250471868   -7.57257706417994   -1.80230312105696
C          23.22078866332772   -8.33550100774610   -1.48618911347428
C          23.51119772070078   -8.33284262634724   -0.11163749356471
S          22.40823778441468   -7.39130335530510    0.78920972394347
C          24.64723492116419   -9.14481449549922    0.11340877775177
C          25.08942137719514   -9.65681082054134   -1.12261502229365
C          24.20681066504051   -9.16339741082722   -2.16772226754330
C          24.28255749454010   -9.41976241060368   -3.50436465209062
C          25.29796366867444  -10.22880798147421   -4.05840026232307
N          26.12742017060070  -10.87532069485597   -4.51442120598332
C          23.35620209797928   -8.88430839144010   -4.42486378997965
N          22.60767329877040   -8.44983145846768   -5.17664821508514
C          26.21016792905414  -10.47119798131851   -0.99484355290006
C          26.60275286637042  -10.62414215596972    0.32617310288467
S          25.59173585545911   -9.67933830031491    1.42096895991781
C          27.71949600165052  -11.35863432998267    0.78779153044537
C          27.98313823410671  -11.81025390896470    2.04419761631367
C          29.38753824641752  -12.11183122566401    2.44323027113108
O          30.33688848524233  -12.24086229706917    1.70633273358918
C          29.36658631530916  -12.14460235208882    3.91895304720444
C          30.41064275056958  -12.25109246232858    4.79208920547799
C          30.15285515269837  -12.22762394917108    6.18127644503228
C          28.81074577397431  -12.08806708965884    6.64180475117030
C          28.56293155673546  -12.05495392230868    8.02776468716556
C          29.61074032687178  -12.16086249981592    8.89952516056802
C          30.93660481159354  -12.30169148779245    8.46714263896940
C          31.19514394699953  -12.33415179104212    7.12506973843478
F          29.37604642308820  -12.12937035553240   10.22336857526771
C          27.74714194180831  -11.98934908496888    5.71492486026863
C          28.02175938173466  -12.02375514637549    4.37512149405150
C          27.14334427392652  -11.98026500743969    3.21074412169406
C          25.81790155429717  -12.32961391043047    3.20772412759767
C          25.08005632366149  -12.55019477317533    2.02671928796383
N          24.46245578205641  -12.76983831574271    1.08409326199391
C          25.07296699282778  -12.58782255744915    4.37564560483668
N          24.41913107809307  -12.78948678535538    5.29726972181777
H           1.78126499947569    5.08494561388801   -1.50630276125132
H          -1.54757347926399    5.15514609065689    1.16286230236150
H          -0.12657312494689    4.26330890638855    2.99243288091392
H           3.96883089228189    4.30638846663598   -0.73561199458317
H           2.06540702056484    3.45434370784584    3.79625071864834
H           6.97875710083395    1.62541007708319    4.09184613644626
H           7.38028785525620    1.16577578892857    0.25466836044766
H          12.51205094510548   -1.71670095414349   -1.62286512447437
H          14.59944048612876   -2.97112287204386   -1.83407041863026
H          16.19605020661943   -2.17750458282451   -3.33495269430598
H          15.65317796552775   -6.11341233227514   -6.80199442667552
H          17.40081550197769   -5.95787966805769   -6.96670159041992
H          16.33604072197265   -4.66083577024315   -7.54427210620512
H          20.41577470397150   -3.63260604306374    2.42637395020498
H          18.99405369819048   -3.72195016596877    7.09860366018447
H          17.62145175556970   -4.80974477558310    6.82920433807520
H          17.38456751688135   -3.06572453208149    6.75600809766337
H          20.24685202210824   -5.76442536510129    1.49740381585501
H          21.68909366013188   -7.43676244255755   -2.78810014051411
H          26.71149950205909  -10.96788967199322   -1.80589189451828
H          28.50999767733715  -11.51542667735308    0.05983829549423
H          31.42221250811000  -12.35141156371671    4.42830681262051
H          27.55411473939980  -11.95198895255291    8.39589763417530
H          31.72237232620153  -12.38101523610010    9.20150961354614
H          32.20838856195688  -12.44171514898684    6.76838090799653
H          26.74104816477714  -11.87674572270553    6.08733555506671
