110
 SCF done       -225.394368993553          0.000894780767
C          -0.24149713738049    0.21981968747140    0.61662942918236
C          -1.35259727258138    0.96602045778247    0.89624127106924
F          -2.37766276050997    0.40402409486828    1.56094359798960
C          -1.47108362486220    2.30990706287927    0.51587628073639
C          -0.43868441213699    2.89987847764118   -0.15860943591653
C           0.73162197248564    2.17799616007845   -0.47088317836493
C           0.83108200105726    0.81083225711372   -0.07872193787051
C           1.99183192248597    0.06327823074067   -0.38759185844930
C           3.01832264122661    0.66862771354132   -1.05969610801484
C           2.92348020616246    2.04175833977531   -1.42789329271099
C           1.81043064224121    2.78302891080554   -1.15346283507916
C           4.18055717360364    2.45895772386263   -2.07340095416167
O           4.45128510351952    3.53015936210855   -2.56503964211752
C           5.09672647953500    1.28834587973484   -1.93928942128506
C           4.30537079696150    0.15211440059353   -1.52059422528635
C           4.57955931151266   -1.17201980303005   -1.74742107412785
C           5.74005790782168   -1.62938429181237   -2.39985500710905
N           6.66772567212304   -2.03452813664086   -2.94215024779490
C           3.68756473517418   -2.22075949335031   -1.43890768290226
N           2.99423750941262   -3.10731445735121   -1.21637302508799
C           6.43153843996461    1.49238895801362   -2.12442023269472
C           7.52423976901352    0.70995023618953   -1.69850989956669
C           7.56691531748152   -0.30415602846490   -0.75098940687948
C           8.84859332671922   -0.80572978915194   -0.57473618313709
C           9.80828999478922   -0.16227870984926   -1.38452351424944
S           9.12411203538548    1.05759354787581   -2.35126789786177
C          11.07273867881058   -0.74271549156030   -1.12201204729260
C          10.91321418796421   -1.75924137536049   -0.16289387866666
C           9.50747711745078   -1.83869868312010    0.20395880823916
C           8.92089670600282   -2.70524103567777    1.07866361264774
C           9.66212737765787   -3.67913034140087    1.77992078752416
N          10.27200086961978   -4.46273974409873    2.35293123897884
C           7.53342204298008   -2.66513672097910    1.33303461274155
N           6.40649189025512   -2.61329048679742    1.53778034406299
C          12.11453225765952   -2.37366880327770    0.18326160430309
C          13.18941128166170   -1.82327705191917   -0.49378652510315
S          12.70307803526622   -0.54276441136499   -1.59331099113926
C          14.56088673910724   -2.14487934900176   -0.33903369420285
C          15.64590170827027   -1.49178951055746   -0.89489766640779
C          16.85639247070431   -2.02510227060476   -0.45512601794379
C          16.68988809413519   -3.10567548970744    0.43040200245795
S          15.04526798807292   -3.46113325124713    0.72274142276340
C          17.96798932037006   -3.53601702743590    0.86361875259590
C          18.94164887238478   -2.71497110838706    0.26815143164991
C          18.27661579873530   -1.75403668881864   -0.59886950730157
C          18.86486580025777   -0.79943412978302   -1.37561495537424
C          20.26499145544052   -0.63178241347862   -1.41346184578508
N          21.40402587094940   -0.50107414451062   -1.43462672036534
C          18.11174894389744    0.07457630609378   -2.18763524287612
N          17.49680028966438    0.78182480135462   -2.84788330541489
C          20.23700307607755   -3.01711095797253    0.68173207852947
C          20.26322593529661   -4.06962613623816    1.58048411038316
S          18.65516499250979   -4.70443910239636    1.90231129153306
C          21.40104253190127   -4.60967832958269    2.25405426039921
C          22.56379651492058   -3.89151189239280    2.41809210533680
C          23.68117487952189   -4.34786545228106    3.11042783966435
C          23.71458225370012   -5.68261398333707    3.70939709604766
C          22.68380316696908   -6.55700211993926    3.66958400997128
S          21.18980227817164   -6.22640446840936    2.89938548400298
C          24.98536149037982   -5.78126149391856    4.33926494768670
C          25.69332028621572   -4.58652202809912    4.18391546881628
C          26.96502378279591   -4.65631132794169    4.79454869887227
C          27.17391726332491   -5.86081534254562    5.38906738232375
S          25.85149372206967   -6.96117032634925    5.23404266955948
C          24.88130249407866   -3.66624298205979    3.42369803975832
C          25.13301963309122   -2.31732772537074    3.12108205226449
C          26.12402615557178   -1.55043086728235    3.66885611480376
C          26.23270731894710   -0.17542066976056    3.41681420547206
C          27.00128933499913    0.73597523868739    4.09611126596498
C          27.28930886975426    2.05462221105067    3.48553736203138
O          26.76935637415557    2.53041441637059    2.50034479696669
C          28.37119115052383    2.63914903920022    4.30699445095942
C          29.05225012166738    3.80672817984631    4.12356635113823
C          30.06988815337223    4.15985861836458    5.03872509299815
C          30.36625328919694    3.28537941541543    6.12354481316850
C          31.38321674048586    3.64087513621777    7.03185828940447
C          32.07019077818534    4.81161663656244    6.87316312730761
C          31.77538808434737    5.67615857529046    5.80076839900859
C          30.79669749088354    5.35810154170596    4.90124251733796
F          32.46574474720777    6.81822380479366    5.66911250411771
F          33.03488350028653    5.14930500322219    7.74072911673343
C          29.64041171935694    2.08279543431858    6.28891384058365
C          28.65013428268624    1.76779564108312    5.39810125493057
C          27.71328132730614    0.64389312957731    5.34481563924940
C          27.43632962974756   -0.19091634579988    6.40181973863531
C          26.32813301707870   -1.05820376647230    6.48086271942949
N          25.42092424001602   -1.74481480746655    6.64144195382235
C          28.17213929008659   -0.20384079163689    7.60348371999992
N          28.74912162074680   -0.28315839878564    8.59354717915641
H          -0.18622809462518   -0.81338223296046    0.92182984585660
H          -2.37198388737080    2.84831376802757    0.76398393690010
H          -0.50611925177566    3.93396986393637   -0.46138947310915
H           2.04631881902766   -0.96614084592959   -0.07045654986654
H           1.75523510636799    3.82007841513501   -1.44874474060688
H           6.68022552385325    2.43510598486493   -2.60324513740867
H           6.70772309810209   -0.61649012433823   -0.18652280968001
H          12.22129318246509   -3.16942353876678    0.89863905712096
H          15.54244422483716   -0.65998736879970   -1.56846011002571
H          21.11901840057843   -2.51215620861895    0.33421870232759
H          22.58342395404971   -2.89248516006419    2.00812875585888
H          22.72536716142777   -7.52809943614809    4.13672644606909
H          27.70621668588232   -3.87906046545957    4.79760311832368
H          28.04579645670232   -6.18263815123554    5.92430961563648
H          24.42092280291923   -1.82184364263336    2.47315841919711
H          26.82205680688951   -2.00378481434864    4.35288711170782
H          25.69542859684459    0.22559678495627    2.56320206798106
H          28.81617574527641    4.45503240568247    3.29347584799332
H          31.61902830457976    2.99187881042193    7.86078537958194
H          30.58266393445918    6.03074112207303    4.08546934803556
H          29.89149929322594    1.43924972208983    7.11674343063582
