101
 SCF done       -206.020616731883          0.000262952234
C           0.89605747931453    4.16304376135869   -0.93516047311632
C          -0.46210356827201    4.30409397258133   -1.00394470814409
F          -0.98754032717644    5.32218187931449   -1.70885031304449
C          -1.34298967436804    3.42226335647933   -0.36289025134723
C          -0.82837609883799    2.38030811846388    0.35717385225665
C           0.56442504229275    2.18723438794598    0.46144017509361
C           1.44366797693635    3.09812025845258   -0.19392594134457
C           2.84512731741240    2.93561073022923   -0.09023448029984
C           3.34624955908851    1.89572185314383    0.64432923450997
C           2.46271076143361    0.97239051198302    1.27399722148904
C           1.10675425402015    1.10933847240834    1.19634618209405
C           3.25360226785063   -0.07403198517900    1.94588112955304
O           2.85450398785923   -0.99739764741871    2.61823411581633
C           4.67105474111111    0.20590012472514    1.57817456532548
C           4.72103778978477    1.51238056795642    0.96007164930698
C           5.79385191234750    2.36592199708474    0.91488037998272
C           7.06019438681225    2.07257597184774    1.45461635756804
N           8.10080604048545    1.88888346749445    1.90453480617006
C           5.72918632539538    3.68287315783285    0.41327198348476
N           5.73332641758018    4.76154387492240    0.02180708444798
C           5.60216879789059   -0.76487605680295    1.80430310684371
C           6.88935201135284   -0.91171731460167    1.25045036941639
C           7.42877834365874   -0.33379726170298    0.10870901379589
C           8.73860025397578   -0.73252345418857   -0.11482181668489
C           9.21446219304745   -1.63333926861892    0.86331567850562
S           8.03453405847706   -2.00303302599745    2.03003481722755
C          10.56539285566126   -1.93388915435316    0.57352261747865
C          10.94870091764400   -1.22418033269663   -0.58033343865263
C           9.81246986145284   -0.44438095044443   -1.04776587793867
C           9.76891845025880    0.40824877100205   -2.11165087199650
C          10.88268265095681    0.62610498691595   -2.94919078592090
N          11.78527563853229    0.79964639264853   -3.63479368414006
C           8.59525055560103    1.12288056555916   -2.43227728978891
N           7.63255819371081    1.69277266484285   -2.68401449857615
C          12.27727818237746   -1.43295629162142   -0.93681846654601
C          12.91538210199701   -2.29894646050502   -0.06057482033010
S          11.84822998515228   -2.86335855622583    1.21499471327889
C          14.26648522318519   -2.71817089858344   -0.09099814860819
C          15.26497043182885   -2.33691096406155   -0.99569157718273
O          14.97466940749385   -1.49529433381438   -2.00573595189224
C          16.01845683553152   -1.13354888057922   -2.88624414960353
C          16.50721850167224   -2.91541073484816   -0.70595578856153
C          16.48452251004535   -3.74090390203890    0.40038152010978
S          14.89692727081492   -3.81132947054717    1.10232289380595
C          17.55792187593388   -4.46236756823697    0.97527075627337
C          17.49778040298327   -5.32655339728071    2.05611224141015
C          18.74737508597742   -5.84958568136860    2.37455720415348
C          19.77297605534365   -5.37973702421532    1.53323560212671
S          19.18870982320758   -4.30064007232208    0.34243154134957
C          20.99890185521671   -5.95408817784183    1.94509815437533
C          20.74501410602917   -6.79148362488107    3.05242616145511
C          19.32460410696714   -6.76560881139668    3.34693282953800
C          18.67403621139309   -7.48094271590934    4.30870831686467
C          19.37078282632851   -8.35768784389093    5.16735842510480
N          19.95338536889547   -9.06139117563511    5.86032952668647
C          17.27922374585127   -7.39068978794824    4.49932464816115
N          16.14619963568245   -7.30965576433202    4.65386919781036
C          21.88619551607157   -7.42026368204952    3.52895747686053
C          23.01806710724226   -7.08082838340564    2.80105236509004
S          22.64585209323926   -5.93310177256786    1.51731566898018
C          24.35363167023132   -7.48591955513953    3.00670945820274
C          24.81701484130401   -8.54486462519221    3.72890839896522
C          26.23354697117626   -8.52671689712168    4.19670374887677
O          27.10617180290734   -7.77997569569337    3.81758846847449
C          26.30704339840570   -9.55893999934901    5.24634839293717
C          27.33873313753893   -9.85798735145987    6.08908112307437
C          27.16550377773946  -10.87261953744537    7.05697116254494
C          25.91669844681935  -11.55583236622668    7.13804233253243
C          25.74712007485604  -12.55746509904476    8.11334819077289
C          26.78165968704110  -12.85512197511053    8.95627754087712
C          28.01744577773905  -12.19674852969557    8.89123714892967
C          28.19850878093299  -11.22042969209418    7.95155049790179
F          26.62286463131436  -13.81198125330939    9.88766717650234
C          24.86763523355623  -11.23076447975815    6.24661756770839
C          25.06451540558843  -10.25349141995564    5.30951571389892
C          24.18724834597395   -9.73271549436244    4.26409025830464
C          23.11752540836773  -10.40773099976788    3.73498397040594
C          22.41913779065610   -9.99569096075113    2.58407898041288
N          21.83745591924782   -9.70670927996250    1.63700135307409
C          22.64984209878808  -11.64512758170316    4.22547634994203
N          22.23301107002933  -12.65371096624043    4.57962315507788
H           1.54448349591344    4.86337216798785   -1.43797273401622
H          -2.40545408889922    3.58454561930842   -0.45177533919803
H          -1.48677577464971    1.68742655217128    0.85919524344898
H           3.48735634210101    3.63314741729711   -0.60403410468755
H           0.45504601181241    0.40415676121575    1.69004092985933
H           5.27008154392276   -1.56378473829869    2.46100714997535
H           6.86667565965559    0.31160088898820   -0.54142846793453
H          12.77640995863827   -0.98920214871574   -1.77664386824130
H          15.56609151805440   -0.45799235999718   -3.60968753207108
H          16.42153458565029   -2.00836938874058   -3.40432600574307
H          16.82345946569548   -0.61654211503839   -2.35640206777546
H          17.40546240340808   -2.74968006096232   -1.27280575780624
H          16.57905286402082   -5.54736495528585    2.56928607792866
H          21.91583394781518   -8.05931846612158    4.39241966979269
H          25.12344520231525   -6.83494780783791    2.60357300194332
H          28.27535519948796   -9.32524371184697    6.02071110973143
H          24.81021113188740  -13.08672166983484    8.18966594187306
H          28.79682844759166  -12.47402191611042    9.58315972344159
H          29.14137424469767  -10.69903703837191    7.88276075325374
H          23.92854593098168  -11.75336668746992    6.33691503639203
