112
 SCF done       -209.994518949502          0.000849967634
C           5.06900065495239    6.59264314318263    4.17601855031851
C           4.06239338102991    7.51673831703433    4.13337571223162
F           4.20018024387874    8.67668070363365    4.80082315705593
C           2.87818394300060    7.30584786202731    3.41406164228137
C           2.72094489098951    6.13346520183249    2.72861518507410
C           3.72721714689523    5.14591175818426    2.73758269519611
C           4.92353695840867    5.37861757420949    3.47700387145072
C           5.94338988456904    4.39889729891176    3.50876682591846
C           5.77189776354732    3.22936527237427    2.81919173948324
C           4.58123219996195    3.00986644341115    2.06761702365868
C           3.57759816836908    3.93393192060837    2.02697867643505
C           4.66663761803779    1.70278047311796    1.38811465198080
O           3.82821885320241    1.16261943779135    0.70474531861723
C           6.04399161239074    1.20713724452332    1.66991679655642
C           6.61579437815042    2.04271451792417    2.70364408994581
C           7.60462676491873    1.68635966155604    3.58430733994402
C           8.17917724848493    0.39898484393684    3.61478754257169
N           8.62907239699785   -0.65320936529280    3.69854585715014
C           8.11135359215716    2.53793403233949    4.58360599010170
N           8.58592496936314    3.21446306111910    5.38133510157942
C           6.55666970124319    0.21680819429820    0.88904576707769
C           7.90888558350114   -0.14671926759352    0.68158076881304
C           9.05077101814416    0.57361972362830    0.93063769593910
C          10.23676509033594   -0.07568843201296    0.53785110035877
C          11.56548387202271    0.37199391419651    0.71590306716123
C          11.88044490217536    1.57064497558905    1.46162522953794
C          12.88209919530318    2.47472065540104    1.23954424531635
C          12.92683958549521    3.48885080910868    2.21789710093358
C          11.98377732860683    3.37487965184138    3.20041960351313
S          11.00056339597844    1.98517011529400    2.91277583339883
C          11.76388097551842    4.25121163151817    4.37811916285310
Cl         14.07550795135598    4.76919437838537    2.17751079925436
C          12.56020958721430   -0.43366151001978    0.17369490319992
C          12.29660612895210   -1.66277160040900   -0.48322227752692
C          10.97776172101223   -2.14986769038612   -0.58291410473704
C           9.97482438043262   -1.32272226148061   -0.08743540406734
S           8.27221556801598   -1.66656421463996   -0.11220602070463
C          10.66750930378710   -3.45397254097921   -1.13224452314379
C           9.59190537252090   -3.81569896231128   -1.89201261046233
C           9.56817738053010   -5.19680942724077   -2.18285643998494
C          10.60260402736611   -5.90659540782657   -1.64620074938001
S          11.65000773124605   -4.84800566540402   -0.76495917412624
C          10.87850845957233   -7.36264162575867   -1.73300532787715
Cl          8.32613078694083   -5.91207905947203   -3.13675605015799
C          13.48125492129735   -2.25577865432289   -0.98242894474685
C          14.61430798927929   -1.55750161378030   -0.68772736192433
S          14.27068049674740   -0.10933827487442    0.23417966586579
C          15.96270724869158   -1.87376599012175   -1.07093152130719
C          16.26190772951029   -2.63840826300921   -2.20892951819794
N          17.48625651108579   -2.92008683589470   -2.57731147725247
C          18.48736169202319   -2.45685538418555   -1.81319244022516
N          18.31070330215205   -1.72021231415882   -0.70365177574395
C          17.08481257491084   -1.43120644256897   -0.35227430015926
C          19.83176697624178   -2.74214462786071   -2.17932944683552
C          20.34461987388632   -3.32804667264133   -3.34563435040405
C          21.76857868926929   -3.40481705467350   -3.32994753570475
C          22.44341744062691   -3.95890454544289   -4.43306451343717
C          21.72184718373103   -4.41118357181525   -5.50328587675157
C          20.31701737283953   -4.33201897960628   -5.51644363484205
C          19.62844919015913   -3.80156173316459   -4.46119542851188
C          22.32755198606445   -2.90009201147358   -2.13788198043803
S          21.09007840426475   -2.30737803353436   -1.08167484545159
C          23.69436222770809   -2.87758376905279   -1.79419480420141
C          24.18837448711252   -2.53694303877082   -0.57493580889969
C          25.55905927882673   -2.54458819160731   -0.24207785058514
S          26.82741641562347   -2.84478206609361   -1.41412430030449
C          28.09840867650690   -2.70766260144084   -0.23472814398865
C          27.55670764010904   -2.44661017525266    1.01830034903498
C          26.13706476544425   -2.35109443977020    0.99836215928017
S          25.47607544801709   -2.04532821168752    2.57190411080347
C          27.09492443622791   -2.05350647916511    3.24252362160506
C          27.28915634245682   -1.86247574834707    4.68034519295446
O          28.36835661136312   -1.85833259078602    5.22224213500915
O          26.11742014386731   -1.71129191585361    5.30902927710503
C          26.16072165755059   -1.51787580807411    6.72171340572108
C          26.43889722362454   -0.06478573883868    7.07802019896057
C          28.07698106205333   -2.26772883240878    2.32366598729778
C          29.47987411520509   -2.85283559650503   -0.56721898854812
C          29.94919468755265   -3.08607039480348   -1.79393697869909
H           5.96565405353502    6.78790358918770    4.74322003234239
H           2.11861297964215    8.07138249152587    3.41693813682406
H           1.81768239827521    5.94781458965857    2.16721444492594
H           6.84081962066389    4.60268418664339    4.07133793856087
H           2.67986559041527    3.74356750496441    1.45817874273486
H           5.82590812489552   -0.31330574116339    0.28573556743035
H           9.03069343837421    1.57292186204219    1.32441805889086
H          13.54342160493404    2.44985068916511    0.39368782134728
H          11.80705773708631    5.29775092961477    4.07896169613125
H          12.54294233739729    4.08443013217625    5.12324298859597
H          10.79903977478238    4.04339998902039    4.83509405656179
H           8.85737676365691   -3.12798384751145   -2.26714330535638
H          10.20144828016240   -7.82145528173641   -2.44925393257727
H          10.73546504833710   -7.83774261513361   -0.76219169699988
H          11.90608846808573   -7.54191931531699   -2.04528774250344
H          13.49394408793473   -3.17491692180832   -1.53757819646274
H          15.47648259695427   -3.01402902893427   -2.85278388852079
H          16.96769526787043   -0.83063367435795    0.54219432946315
H          23.52067774956015   -4.02235141916069   -4.43090154337440
H          22.23154568698341   -4.83637800770094   -6.35507588659846
H          19.78151090976428   -4.69899798218877   -6.37939532517183
H          18.55322701402659   -3.73522840383609   -4.45306434272137
H          24.39169190373782   -3.18232182809312   -2.56387973240829
H          23.51208780838228   -2.26215594939320    0.22438893269729
H          26.93776146536931   -2.16546892773553    7.14199631940341
H          25.17776825681557   -1.83203008747085    7.07852960921663
H          27.42437569088952    0.22267513401735    6.71950410774987
H          26.40842707980445    0.05681006907579    8.15681247366616
H          25.69263595951966    0.58325061995913    6.62464295269224
H          29.11773541115836   -2.30197009338254    2.58878163151890
H          30.15911771542087   -2.75713104120861    0.26968763656087
H          29.28646090803813   -3.18284302162351   -2.63806509941515
H          31.00242174910466   -3.18349778371804   -1.98526142426293
