106
 SCF done       -217.842636788789          0.000835034123
C           2.32676791804840    4.72709263242855   -5.88722568180405
C           1.11366639328841    4.88756483769876   -6.49713920827913
F           0.88128850537300    5.99162306751832   -7.22916884319715
C           0.08756436817061    3.93856959774938   -6.39128249547587
C           0.30487284122655    2.80889404086185   -5.65266252012122
C           1.53733940025070    2.59171882120383   -5.00304426409385
C           2.56687178627726    3.57101476661891   -5.11968860608082
C           3.80709200912851    3.38268310451600   -4.46587902747241
C           4.00758375768751    2.25110920667852   -3.72323291099910
C           2.98470800622403    1.26353892469923   -3.63159390522729
C           1.77583985684285    1.42338007160970   -4.24540303894881
C           3.47534008177413    0.13027850336139   -2.82764685096966
O           2.87632822518576   -0.86650792232785   -2.49469030140323
C           4.90765750041767    0.43784223177667   -2.54677607191124
C           5.14840274414385    1.81462946395413   -2.92082320473591
C           6.10747857352417    2.65376335155197   -2.41426333883126
C           7.05734693443602    2.27547960602785   -1.44674032870809
N           7.83307803566577    2.01994966081595   -0.63931199758860
C           6.19353350858085    4.02700240162500   -2.72645689881296
N           6.31134563013367    5.14749004892269   -2.94376158481900
C           5.70821365887719   -0.56602403299332   -2.08922935641030
C           7.11595818556440   -0.64852587775555   -2.08503632948417
C           8.04041417888950    0.07086349253909   -2.82979965929430
C           9.34767175246415   -0.29689015338243   -2.54303855795036
C           9.43132617141766   -1.31621169778739   -1.57077291671651
S           7.90017851316839   -1.83329825560378   -1.04210265898116
C          10.79829252130646   -1.57280259865624   -1.31078940752428
C          11.57928855424293   -0.71747955957058   -2.11033718228509
C          10.69085300116513    0.11175306255577   -2.91131790899463
C          11.03524330682857    1.09208654203072   -3.79505063770932
C          12.38005336213245    1.41174510072881   -4.07485218342231
N          13.47553922501990    1.66051369525573   -4.30406907426228
C          10.05555846264898    1.84016574137316   -4.48163679710138
N           9.24794798267117    2.43732317025728   -5.03478822857208
C          12.94674202216114   -0.87005185119168   -1.89719099388684
C          13.21632745541675   -1.83666206883146   -0.94026918184723
S          11.75315620014448   -2.56856685419471   -0.30443031204345
C          14.48553123684305   -2.22917771614395   -0.44501321020409
C          15.72373006545383   -1.71256144408961   -0.78148023418763
C          16.76944007913357   -2.31376489956579   -0.07548627625962
C          16.33057563510197   -3.29458601877798    0.81414029243268
S          14.61692944240473   -3.48484977835984    0.75695478933836
C          17.26629465866388   -3.89798979675710    1.68026862044290
C          18.61482037620637   -3.60866697446635    1.52004956329653
C          19.05926900182763   -2.79839875253408    0.33844181280331
O          18.05716124465140   -1.92956056250751   -0.18547401974787
C          19.40860212835503   -4.18641714053376    2.50675519860326
C          18.68137743815937   -4.92738529820371    3.42182993989914
S          16.97420291657931   -4.90395525143047    3.05034707277107
C          19.14785362575724   -5.62259906135799    4.56253867467433
C          18.39310582310222   -6.38795951344656    5.43691323560896
C          19.15947017813434   -6.89129556913852    6.48347662617724
C          20.51165456700581   -6.50868647584140    6.41173806063855
S          20.83589082369866   -5.53709334021303    5.04053124364712
C          21.19400025645044   -7.03804840304848    7.53222955554587
C          20.26574375986244   -7.75694442420879    8.31676887011098
C          18.96662968790480   -7.70597440919125    7.67371948085771
C          17.82198598740579   -8.32055851017189    8.08882319157706
C          17.79281111545394   -9.09926873767572    9.26528177113591
N          17.78211481599993   -9.72097839878779   10.22871122417935
C          16.61070407238615   -8.21749072295470    7.37352482680745
N          15.62479026303631   -8.12540269677534    6.79558902769632
C          20.83237741108283   -8.31516356152896    9.45262291304741
C          22.18954777531525   -8.04086287185126    9.55506375828479
S          22.75386056171145   -7.04747988037101    8.21221844881326
C          23.08431397040792   -8.38299775292202   10.58876986831643
C          22.92699201129284   -9.30739580225896   11.57921554259607
C          23.74422980416708   -9.16961848233374   12.81899164231809
O          24.71990535381833   -8.46947222810495   12.96417176395288
C          23.06648752940066  -10.01066638749020   13.82259153252810
C          23.31297830261994  -10.12241049707104   15.16061780753085
C          22.48866802965876  -10.96014762420885   15.94506781845496
C          21.41757949110823  -11.66729877163010   15.32432018820525
C          20.59127769998912  -12.48861304842562   16.11543663402024
C          20.83412764341492  -12.59126743538181   17.45700574645699
C          21.88248850258308  -11.90559488009418   18.08574067825008
C          22.69443365945381  -11.10403528849019   17.33255524475117
F          20.04578528629129  -13.37426936673384   18.21499425717959
C          21.19207723937729  -11.54104867951030   13.93347203983021
C          22.00884959827549  -10.72959257331329   13.19461331167506
C          22.01736286137928  -10.41586494648302   11.76782234133532
C          21.46413529264830  -11.20265774079276   10.79044788041924
C          21.66173648020288  -10.99264176831795    9.41248664274788
N          21.81054933527779  -10.86032973555580    8.28142042741795
C          20.71190591151009  -12.36661136469307   11.05352237980527
N          20.10377477899559  -13.32616636395657   11.21452398343247
H           3.09254302129506    5.48031811894890   -5.98705263960171
H          -0.84903833022653    4.11979878247860   -6.89426306577388
H          -0.47006328381789    2.06333073265814   -5.55686661223178
H           4.57241364124751    4.13401634626808   -4.57907776536725
H           1.01041540602502    0.66730444476987   -4.15489004668042
H           5.17544292044998   -1.44295716696332   -1.73317926966742
H           7.75729379304400    0.79655863829247   -3.57030304672358
H          13.71320254649337   -0.31123220553751   -2.40066288753902
H          15.87439660670603   -0.92500764124546   -1.49458042069971
H          19.38532142464099   -3.47805503432051   -0.46799650742529
H          19.90059395879994   -2.15069408747026    0.60021012276257
H          20.47722190495448   -4.08074995177972    2.56459131068340
H          17.33927541810958   -6.55350667034294    5.30173613057202
H          20.28497081053402   -8.85188279195865   10.20546481135374
H          23.98333052025697   -7.77921452759829   10.66682150454128
H          24.12320144481524   -9.57414031942803   15.61743802779311
H          19.77660988286764  -13.03306119702204   15.66419701366325
H          22.02487515689645  -12.02441293050231   19.14813971656387
H          23.50803242508334  -10.56534727270944   17.79459252191750
H          20.36733637185796  -12.07596858936510   13.48972137811004
