108
 SCF done       -216.030351439006          0.000736073066
C           3.78837401586221    1.67090586393275   -5.28727884147107
C           2.49589551038968    2.11293665612805   -5.35102499585227
F           1.64498319411424    1.54220970221270   -6.22345491899182
C           2.01431029691275    3.14461442658185   -4.53498269493889
C           2.86662046032848    3.73340634220660   -3.64188554510040
C           4.20773580446924    3.31418028914826   -3.53154619096106
C           4.67800086084676    2.26276401365365   -4.37062133850643
C           6.01878509143067    1.81991421168744   -4.27326275792464
C           6.85043444529100    2.40160774028808   -3.35738087382881
C           6.37362992638839    3.44722589504071   -2.51541387474231
C           5.09145074663228    3.90469730040405   -2.59827009267220
C           7.45341350378757    3.85442382624712   -1.59099961095440
O           7.43432104647468    4.74608457065605   -0.77216026299104
C           8.54898794238787    2.88104376370381   -1.82801691621336
C           8.25287279470941    2.15396928605844   -3.03047679011828
C           9.16479110613173    1.54890889739620   -3.86784721206440
C          10.55515180665756    1.61645986980992   -3.64732181665861
N          11.69165699107026    1.69969407495204   -3.50637999530006
C           8.82139170614010    0.88215319555969   -5.05150978810858
N           8.59155083412555    0.28160365880610   -6.00588821296821
C           9.51324990543646    2.72361217270251   -0.85963197566606
C          10.28019021846877    1.60071259303252   -0.54958581315939
S          10.01967631030107    0.02339856152648   -1.25908461755126
C          11.19329039848332   -0.76361750708534   -0.22855741190939
C          11.74081663612150    0.17549905229693    0.63504323076909
C          11.24562591108497    1.49305024713140    0.46609522318084
C          11.85518951494698    2.40447210014986    1.35330686656313
C          12.77172235378233    1.79296903710231    2.16049578265600
C          13.61338668548509    2.38122409111524    3.20736450119451
O          14.38927739292330    1.74776428576232    3.87935009458481
O          13.41604654355690    3.70055704979293    3.32162108856280
C          14.19391735605010    4.35662775739723    4.31395919007181
S          12.93846328530956    0.07884462743948    1.88047343234012
C          11.44226954305687   -2.14621079997599   -0.37803591457006
C          10.91564398939745   -2.84238006680005   -1.44927571221655
C          11.09022512419017   -4.19163230251344   -1.68607731840242
C          11.84366485370066   -5.04190970202689   -0.76295555449936
C          12.46134747034596   -4.57283021282080    0.34450283532608
S          12.44509241391580   -2.92569456157382    0.83888776588946
C          11.76606520777162   -6.34727818105070   -1.32265312777266
C          11.03238582164610   -6.32067790997897   -2.51702788483401
C          10.95288592802679   -7.60113254911297   -3.10982867916272
C          11.60506681657115   -8.53735033178767   -2.37303137149806
S          12.34387508138580   -7.91539792262622   -0.93624326858924
C          10.60784144887696   -4.97174168380824   -2.76792411440954
C           9.90781231307451   -4.41287273027313   -3.85069972597538
C           9.36398115163454   -5.02489733121680   -4.93960803050437
C           8.75660408132495   -4.28605562687862   -5.97779819880517
C           8.14392637528387   -4.78214267900861   -7.12335242648426
C           7.70305501672823   -3.76562179130619   -7.96186181607606
C           7.97952243748003   -2.47754107661518   -7.45807292967824
S           8.76940324935419   -2.52053713830407   -5.95081772789179
C           7.55790259495081   -1.52000563149528   -8.40417232901526
C           6.99611453385609   -2.19836604864700   -9.50991167721063
C           7.05761398099298   -3.62645835386654   -9.26026682191017
C           6.61204460658613   -4.63098306806605  -10.06883127357102
C           6.73467308626609   -5.98966114899629   -9.71103985487758
N           6.83245689066102   -7.09474533792559   -9.41993136518168
C           5.98741667238821   -4.38018375521834  -11.30873868253104
N           5.47140582992815   -4.18562798051895  -12.31383442078625
C           6.58987292082474   -1.33478385345295  -10.51896964373249
C           6.88474449949396   -0.01121937623203  -10.22236606905424
S           7.58902801951063    0.16542047124998   -8.61320646255770
C           6.63329115631177    1.09085280824467  -11.06875520147359
C           7.22669366823401    2.31750544012463  -11.08981108704106
C           6.54384771675359    3.44922306916909  -11.77327874769287
O           5.57400942797616    3.38022542047428  -12.49356846832308
C           7.26959536542497    4.65954567864223  -11.34154599271296
C           6.99872861571902    5.96811053293617  -11.61955328713844
C           7.83930149628004    6.97359275778921  -11.09152317424079
C           8.93981287737392    6.60066987488060  -10.26584081115566
C           9.77243574631696    7.60838727835108   -9.74112190109532
C           9.51362452173930    8.91667809379904  -10.04129887020368
C           8.43936071079587    9.30333590139320  -10.85416987995404
C           7.61735689999397    8.33854253956048  -11.36660563375084
F          10.31141673987010    9.88058135072766   -9.54563502221402
C           9.19770014131012    5.23626746246910   -9.99576425289054
C           8.38338037267452    4.27950207217271  -10.53806149500305
C           8.45181932833835    2.82018135998031  -10.50697464407459
C           9.59194854042146    2.09810948739593  -10.26125637509003
C           9.73216284314988    0.73004319827146  -10.57113372580653
N           9.90816668559318   -0.36524272940174  -10.86812144281785
C          10.78933296956408    2.66371972303968   -9.77969304691150
N          11.78159463351734    3.07399862334576   -9.37366715913769
H           4.12471614755723    0.87445064356490   -5.93289132913617
H           0.98442808752567    3.45066322199119   -4.62754088752300
H           2.51821856088166    4.53009243350896   -3.00199919330032
H           6.34822732888022    1.01559496121795   -4.91239722055552
H           4.74939997502452    4.70218354389844   -1.95592172335084
H           9.58734674591456    3.54593143965571   -0.15475490863488
H          11.64212257480791    3.45607568441341    1.40108974333784
H          14.03810337941629    5.42189336940582    4.16606773943425
H          15.24850938784936    4.09937432074257    4.19974173513327
H          13.86446276563866    4.05632341949943    5.31051183077163
H          10.33108383238136   -2.26164248279859   -2.15019958850694
H          13.02692859398871   -5.20718255119535    1.00851968156213
H          10.44775548698214   -7.83075851973387   -4.02947716273522
H          11.70592398494096   -9.58389283340327   -2.58472479338859
H           9.80677430610238   -3.33473539644744   -3.81635162787726
H           9.38770617952896   -6.09793692940559   -5.05387363471847
H           8.04013736493019   -5.83412939768577   -7.31940814371488
H           6.15082549026054   -1.63510150086895  -11.45337465965934
H           5.81851551272079    0.96362105334091  -11.77626155316249
H           6.15741198544038    6.23343821656760  -12.24204245102248
H          10.61206345953254    7.34690428746248   -9.11619794112796
H           8.28574369995065   10.35113050183285  -11.05808003815860
H           6.78347542185888    8.61149189565411  -11.99572345251804
H          10.03421671876066    4.98192171403490   -9.36427526180101
