81
 SCF done       -168.414553157891          0.000387200425
C           1.63334338613360    5.27654616255453    0.34256892877668
C           0.87030326417744    6.41070337615746    0.31838003834609
F          -0.11082316170611    6.56802670601393    1.22367176478684
C           1.07014286305589    7.43124819663664   -0.62198174740956
C           2.06411664395108    7.29108001502815   -1.54978804959875
C           2.88333345788514    6.14317145295067   -1.56925425252716
C           2.66194201355896    5.11498722687723   -0.60599401058942
C           3.46753721242275    3.95306489459983   -0.60687120735435
C           4.46480355237936    3.82999867580828   -1.53639154792088
C           4.69435246233171    4.86871029200234   -2.48487417207473
C           3.92365901144723    5.99611436258039   -2.51313969607877
C           5.85436674759540    4.51795454890549   -3.32252018995438
O           6.30420155349823    5.11478093054741   -4.27024235767397
C           6.41832032822996    3.27488119211447   -2.70295781170409
C           5.43021839878785    2.76243645348956   -1.77028062690951
C           5.29557707242437    1.46621858898435   -1.35609629405135
C           6.15920950761414    0.42392965361029   -1.74699334558119
N           6.83567085463662   -0.45294080909823   -2.04914351685593
C           4.23810897855171    1.01026503661850   -0.53950523729407
N           3.40019769110353    0.59010242600735    0.12161634453540
C           7.68800849859351    2.91664628515714   -2.99766666792197
C           8.57146277196402    2.01602573777702   -2.30882116893797
C           8.56929795512837    1.78511466031056   -0.94406061964206
F           7.70275441555652    2.44117822486972   -0.15376581715373
C           9.47020611900328    0.91467022261826   -0.30690880173974
F           9.35922265559812    0.82092567058586    1.02859484651235
C          10.44898029747588    0.20621286365663   -0.97683282522953
C          10.51078707556289    0.44357768313244   -2.37220440471435
C           9.59203499221900    1.33853600430385   -3.02449186888373
N           9.80644943013713    1.40859370302715   -4.33526376282572
S          11.03357973483684    0.44467679094678   -4.71102734973122
N          11.35941535548770   -0.10531758942185   -3.24132628149337
C          11.36331018010917   -0.70902674080390   -0.29357474701142
C          12.72264589827639   -0.73095181883930   -0.65606784887550
C          13.63970621652772   -1.53042835725266   -0.01398243921964
C          13.17314876311341   -2.34460467799471    1.01325036087777
C          11.79964284651086   -2.34376382422469    1.34884885045591
C          10.87958953981557   -1.53388141761261    0.71980755979175
O          11.62688950266921   -3.23077097489621    2.35563580285287
C          12.87412541584691   -3.71577328785052    2.60299657278494
N          13.80704210074855   -3.22693741278515    1.84245283524751
C          13.06339522770090   -4.68778583116666    3.65471267034890
C          14.38102788649036   -5.05130124895960    4.00556026678398
C          14.63979658784410   -5.95317788985575    5.00660559179310
C          13.54203588520459   -6.51195670825236    5.66356845226632
C          12.21962909868461   -6.15186035782256    5.29321480651804
C          11.95560580282846   -5.23439060970077    4.29733109429652
O          11.37585184005407   -6.85120527545372    6.07277100191805
C          12.17865384118612   -7.59325241067945    6.87751322779644
N          13.45723597602430   -7.41866585114032    6.67115881064397
C          11.58323078770253   -8.48274580827055    7.82466188777554
N          10.27736613026461   -8.66585215106543    7.83556539924668
C          10.04781443429668   -9.56723554802661    8.81615271320173
C          11.30597785764947   -9.96752278926581    9.47594356870232
C          11.03223434967376  -10.95247862420188   10.53712049359571
O          11.80793906153918  -11.49525307153415   11.29118183210565
C           9.56614441145063  -11.11890276106882   10.45459848664852
C           9.01013774740463  -10.24954239786483    9.39110966827899
N           7.66264656264343  -10.40168943281739    9.30681572245376
C           7.36036043114284  -11.28406527823875   10.22189946416109
C           8.50322356300806  -11.77648909342488   10.97633978406652
C          12.30610494784524   -9.27848601896209    8.84446947331117
C          13.72687356981893   -9.25445070528371    9.05309960836191
C          14.33563488358803   -9.96443900341916   10.00450431893272
H           1.44974149195716    4.51010208945749    1.07915954167780
H           0.43683849197123    8.30362180879208   -0.59174238692395
H           2.23744587009414    8.06402984009499   -2.28323036208285
H           3.28866404277499    3.19579344814001    0.13986886688831
H           4.11028781800475    6.77002202818549   -3.24249307987497
H           8.12882235652014    3.40945656494757   -3.85866512626107
H          13.04762813638064   -0.08410166774018   -1.45485854600794
H          14.68214939169539   -1.53090647039744   -0.28531074739041
H           9.83748292484430   -1.55819881876265    0.99129988072817
H          15.18349946250032   -4.58600866505070    3.45602132372408
H          15.64313361203017   -6.22979610543207    5.28441666887444
H          10.95005457407719   -4.95891854032414    4.02595026279524
H           6.33851463474762  -11.59008481132187   10.36613169988143
H           8.46239940135911  -12.50183469917822   11.76458931920547
H          14.28102238020435   -8.61469436570583    8.38141837311631
H          13.78699327040387  -10.60505437905573   10.67550424970122
H          15.40355965314569   -9.92103951726020   10.13381648075804
