92
 SCF done       -172.530098786766          0.000982980262
C           5.17958713681778    6.96029688366900   -5.04860602353215
C           4.13038686831020    7.73097493911602   -5.46561932978794
F           4.18472332756865    8.32812257347691   -6.67142237315415
C           2.98530921440199    7.92868130706075   -4.68286161445250
C           2.91178306683435    7.32991990696018   -3.45569175089716
C           3.96463021971734    6.52492889524887   -2.97542783019290
C           5.12153369599510    6.33823701555486   -3.78641516269145
C           6.19516686200290    5.54242060175916   -3.32251942532768
C           6.10877146889955    4.95309119371350   -2.09066176822785
C           4.94273053158760    5.12828599718500   -1.29170961030245
C           3.89583876239956    5.89608904716714   -1.71114144033566
C           5.09016103315029    4.35463540900422   -0.04075841112089
O           4.32288854158880    4.30638270480794    0.89377937081158
C           6.35897208156310    3.59612066635659   -0.19773234873815
C           7.05170745403738    4.11523260909370   -1.35419947629290
C           8.40178706306198    4.05856311088174   -1.59862986636253
C           9.35189673588624    3.44693875919519   -0.75670668917184
N          10.20284768013630    3.01800169349991   -0.11515684780464
C           9.03298868281243    4.67576304473329   -2.69485725372523
N           9.61779125035532    5.12642066461461   -3.57523326500640
C           6.65553294769387    2.56910204537622    0.64881231990142
C           7.57940287831450    1.50860289547381    0.43381383285334
C           7.90887293224666    1.01663927380188   -0.82847298406168
C           8.83137252652546    0.00623970610237   -1.02545059217828
C           9.54760005868395   -0.58697315041398    0.01873897953053
C           9.17252002940623   -0.17807394106857    1.33262540326977
C           8.18260588407598    0.85035726306392    1.54002756533421
N           7.94552790885557    1.13846009726065    2.81034072077358
Se          8.94857150840289    0.13028177987292    3.82969742114853
N           9.68006987721262   -0.67194789962322    2.45113193635681
C          10.60578235546606   -1.53007548517914   -0.19618655621182
C          11.17873711019183   -1.71358585015781   -1.43992090400974
C          12.21569252461082   -2.58381026421944   -1.74086105053762
C          12.73862279285892   -3.50603204936211   -0.72665853386860
C          12.34443214599118   -3.48685356036396    0.56545004086799
S          11.18194919376470   -2.40403925228121    1.21615949139881
C          13.66849395762309   -4.33407859720349   -1.40985107000147
C          13.73293251545270   -3.95575805016342   -2.75377590764825
C          14.64734054900656   -4.74682072488427   -3.48716177840843
C          15.23621529538416   -5.68387564540629   -2.70209449614463
S          14.71509793580689   -5.64610471406555   -1.04686246426825
C          12.85799862249119   -2.84130026366065   -2.97707541478737
C          12.73266352417012   -2.20514106985946   -4.23513281332065
C          12.23676513214748   -0.96585881084999   -4.49070629966155
C          12.09681282857210   -0.44150877042143   -5.80395448959084
C          11.62968477876414    0.77449053170244   -6.27231907474744
O          11.20640044498558    1.88460263203274   -5.63695762395068
C          11.33301435478601    2.05143316383582   -4.24765105472283
C          11.58675568138932    0.85726140376271   -7.70961422005923
O          11.19017302968539    2.04170272432687   -8.22319170504752
C          10.88091230523002    2.12859095867626   -9.59343650058318
C          12.03558283871548   -0.27223965352597   -8.33352092577273
S          12.50343610370522   -1.47568857841300   -7.16406163344473
C          12.13238985743390   -0.64725997776648   -9.74858090533910
C          13.34716817053190   -0.78392376875920  -10.33763340852760
O          13.51912046521307   -1.20011015734243  -11.60380132265169
C          12.43662456457770   -1.55037042147374  -12.34258362359080
C          12.66105416642927   -2.00267254044090  -13.64327157191020
C          11.59088913251236   -2.37012986164024  -14.42871529399674
C          10.29054234280163   -2.29381957923121  -13.93538701855948
C          10.06762815037072   -1.84806951516323  -12.65339061563379
C          11.13678232252665   -1.46775931171542  -11.83773301091585
C          10.89970348678226   -0.98938785531038  -10.46770880868578
O           9.78466692102733   -0.88551029354359   -9.98401099045016
C          14.63945917362796   -0.47901050678557   -9.65126962652638
H           6.04731724015303    6.83200218302397   -5.67666159798047
H           2.18854365229571    8.54726695355643   -5.06435813988455
H           2.03946106716011    7.46714917988293   -2.83452815301854
H           7.05558094959684    5.41035155672994   -3.95959201404768
H           3.02372343722008    6.02290670566420   -1.08743488576336
H           6.09184891743324    2.53339593338044    1.57475796413637
H           7.39741234477349    1.42160218696139   -1.69027509151461
H           8.99038286015178   -0.32940384643675   -2.03823867341050
H          10.77566708555704   -1.13041354976579   -2.25187235046435
H          12.75822163819057   -4.15939152986411    1.30077809157045
H          14.85637119156604   -4.63233930827175   -4.53528005001884
H          15.96454040097760   -6.41792657681691   -2.98655960444716
H          13.11025371963092   -2.77311425084833   -5.07748127348552
H          11.95276471524182   -0.33024147493115   -3.66983230615767
H          11.07653992795566    3.09472221836376   -4.06161303543553
H          12.35482253177348    1.86406550193312   -3.90579781503132
H          10.63293648114911    1.41406568777117   -3.69724099742786
H          11.75720898771088    1.92713896771949  -10.21867011835423
H          10.55220259580394    3.15438567443223   -9.75161744826733
H          10.07501967126243    1.44139596670261   -9.86043960396403
H          13.67494142096116   -2.05682495680211  -14.00715925798879
H          11.76425432008972   -2.72086052050597  -15.43473585591174
H           9.46092480242497   -2.58501057203267  -14.56097545609241
H           9.07300677520028   -1.77746657968687  -12.23965891075933
H          14.90884764909950   -1.29772366771510   -8.98509528080254
H          14.54928176319032    0.42426428244352   -9.05276573786731
H          15.42462085018715   -0.35791754260120  -10.39278470258581
