104
 SCF done       -210.143056942890          0.000388781406
C           8.30443405529839    7.51273964205845    5.78383859401180
C           7.57216729781941    8.24125431720154    6.67994070854903
F           8.00039131278354    9.46145082026684    7.04661129902214
C           6.37862654966920    7.76416118630726    7.23902142995884
C           5.92608266756684    6.52612611649203    6.87589924900905
C           6.64038539683543    5.73291749302754    5.95463583494235
C           7.85478722662548    6.23443459186542    5.40089858429964
C           8.59623117897048    5.45228638702983    4.48467963904290
C           8.13310612380872    4.21368301871717    4.13273401287802
C           6.90597069511811    3.72674451899755    4.67084107315368
C           6.17622646963734    4.45651527748853    5.56449481574132
C           6.61120773721355    2.40250552392316    4.09256206257368
O           5.68913741069801    1.66317780057860    4.34421471388935
C           7.67185693518061    2.18299163957145    3.06551596388143
C           8.69155634246224    3.19026118602523    3.25401934367571
C          10.00707135463261    3.10483963079645    2.87269034707159
C          10.57132820772805    1.96917681711801    2.26052334998413
N          11.07844654150110    1.04622792009612    1.80283691633493
C          10.95799933094559    4.11936567635872    3.10295208828575
N          11.75983422197900    4.92978097605378    3.23460037623213
C           7.50023085932391    1.20893636452003    2.12702572950821
C           8.16393698828650    1.05752388016680    0.89061242705322
S           8.31592250894511   -0.51878513592350    0.17531398587560
C           9.28246153562533    0.06177033321236   -1.15861028964625
C           9.42249372359468    1.43934475644632   -1.06232279150539
C           8.78546074252871    2.00804928759559    0.07789844929756
C           8.95624562552815    3.40900296690263    0.13013737793990
C           9.76292998181569    3.85797347986463   -0.87517897500188
C          10.23997993039412    5.23132957080177   -1.08894379455265
O          10.95376011530883    5.56686174977098   -1.99777289553621
O           9.79201279360303    6.05420320224356   -0.12957750152012
C          10.23775177732488    7.40267373076099   -0.21020315669266
S          10.28878095051208    2.61755210567691   -1.97650044102982
C           9.85560130887390   -0.88129768215562   -2.04675545720423
S          10.06859596442323   -2.52036143487082   -1.50015698508903
C          10.90686138502032   -2.99220805833355   -2.95398582916325
C          10.99722389225304   -1.91776842001098   -3.83138740084170
C          10.38898969224860   -0.73787660892129   -3.32471894859616
N          10.24177611161158    0.40371860446705   -4.14665536369741
O           9.37518456840699    1.21002593620050   -3.83999006537628
O          10.96445908066076    0.50024605952906   -5.11721643411561
C          11.54563941593143   -2.00739046503572   -5.12604986987823
N          11.98431156921092   -2.15783339004427   -6.17535587384001
C          11.36964291980116   -4.33004509069201   -3.06839217315659
C          12.27107168806872   -4.76065109775983   -3.98581666300433
C          12.74856829332383   -6.09460717084709   -4.13955635409806
C          12.20039052796955   -7.21369636388796   -3.54813071407173
C          12.67181116890361   -8.50911686732024   -3.72132234444081
C          13.84342717240196   -8.78959151467008   -4.55196640756586
C          14.53111327279259   -7.84667159993635   -5.23954319988135
S          14.12945680087607   -6.18648272250333   -5.22034053212391
C          14.02999248921110  -10.19442180965719   -4.48134337406980
C          13.03981669870251  -10.77452040821261   -3.67985959838090
C          13.20570944666682  -12.17544496309715   -3.59354172198565
C          14.27469271160992  -12.60395189575741   -4.31456366659104
S          15.13084960593718  -11.34109396593985   -5.12547407206748
C          12.16732332442271   -9.73042418420821   -3.20318936000740
C          10.98999658372553   -9.84813356580298   -2.44507194462639
C          10.39548770386787  -11.02011268866572   -2.06767465404299
C           9.16550633120013  -11.06016247470886   -1.39464548652501
C           8.39684411384138  -12.16604911746776   -1.13803706900576
C           7.34167178368131  -12.10260401581966   -0.09766743575397
O           6.91218672734557  -11.10483239993925    0.43999580922676
C           6.97442090021564  -13.50682073250219    0.17282632401401
C           6.11636028945702  -14.00676307772118    1.10840084091476
C           5.93976205667482  -15.40569450429362    1.20536241826064
C           6.66787865441646  -16.26206777986887    0.32968911825710
C           6.49437998793370  -17.65555561879080    0.43564100890399
C           5.63069665207311  -18.15503222544900    1.37029153616681
C           4.90355021579921  -17.32988540406203    2.23848432951075
C           5.06213202235984  -15.97461845460252    2.15046069716299
F           5.46256093543601  -19.48667607434345    1.47219414492112
C           7.54584362990176  -15.71473629356558   -0.63547625085449
C           7.69081562824902  -14.35689251114149   -0.71845074164024
C           8.47450089206053  -13.51955238057507   -1.62707538515996
C           8.99235615124097  -13.94130801282142   -2.82829198453824
C           9.47003401576949  -13.09041338775460   -3.84572127079764
N           9.82889848903506  -12.45825574538484   -4.73522944830007
C           9.01492390275670  -15.28792556186159   -3.24319430238877
N           9.09355310314232  -16.36847754242427   -3.62448056810586
H           9.22153576993354    7.90973434408744    5.37741844452573
H           5.84423467856175    8.38326643576579    7.94192618337020
H           5.00914833200590    6.13782467201250    7.29278380581075
H           9.50797594638946    5.85750252664800    4.07510742508749
H           5.25434720351627    4.06595535011429    5.96846178201848
H           6.73049916598013    0.47814190197848    2.35599780910203
H           8.50028852771464    4.06668295611467    0.84584944878315
H           9.58423255705860    7.97933545967629    0.43939942277657
H          10.17733596562685    7.76046332426873   -1.23956544142314
H          11.27227861000534    7.47258572535102    0.13135480824701
H          10.98243418526255   -5.00885182339190   -2.32112025428354
H          12.70699187630620   -4.03818901713279   -4.66088769017893
H          11.33218484131199   -7.06134409636327   -2.92347668478013
H          15.38071739287894   -8.08878237648942   -5.85842804505285
H          12.58790389603193  -12.85365965711972   -3.03591425052168
H          14.62427812166703  -13.61170643486932   -4.42618199075727
H          10.47371424757002   -8.92752347575728   -2.20300258076554
H          10.87692334582209  -11.95295195527208   -2.30600069312573
H           8.79153307834439  -10.13412832637291   -0.96964297892129
H           5.57655589207752  -13.34334412114260    1.76744838534572
H           7.03518050956327  -18.32075278446212   -0.21933799410046
H           4.23603482283637  -17.78084637558246    2.95551890762320
H           4.51279094191563  -15.31835911112630    2.80866753359928
H           8.08692562266444  -16.38842528950113   -1.28071115553870
