127
 SCF done       -223.101146043967          0.000729103302
C           0.76294963362009    1.83988433055300   -4.65829668224621
C          -0.58351040721797    2.06680635033310   -4.72299134443662
F          -1.17822072835222    2.18540879360768   -5.92370192823997
C          -1.38244566234029    2.18175718910438   -3.57695267527158
C          -0.79675335707794    2.06243785204161   -2.34758530786424
C           0.58779140531176    1.82624829581311   -2.22205386313892
C           1.38342758396848    1.71533616460359   -3.39987731891735
C           2.77528478943115    1.48689373044400   -3.29989535076386
C           3.34843693207939    1.36826700344655   -2.06241746109536
C           2.54535603189295    1.46180299463839   -0.88867967473390
C           1.20128436783430    1.69125032297901   -0.95670861757389
C           3.39258869548622    1.25268998509917    0.30155285723046
O           3.07119137239372    1.31494001489087    1.46568427414641
C           4.73199245510446    0.87908475761347   -0.23535709448157
C           4.73585623172419    1.16347161277376   -1.65865015743252
C           5.83510695925953    1.43830970876702   -2.42695405871321
C           7.15174658272455    1.48164635044479   -1.92392704353015
N           8.23268673075976    1.59728102444214   -1.55638127445478
C           5.76708159921383    1.79434491844787   -3.78939602972434
N           5.75865591067964    2.06708265277352   -4.90424084353803
C           5.64376684955837    0.28428603915628    0.57054805727517
C           6.81081752779309   -0.46693561168773    0.18942881556306
C           7.93481347701831   -0.46482395338340    1.02920595077543
C           9.05680081471719   -1.15844707508600    0.65108102101620
C           9.06610668231037   -1.90836997062233   -0.53870807323451
C           7.93882972211130   -1.96290896319866   -1.34746187697288
C           6.82684418364073   -1.23468464612214   -0.98415126966349
C          10.36222640866841   -2.53026301087096   -0.68093515385549
C          11.15681329358591   -2.16824985458397    0.42172564003594
C          10.39020635301536   -1.25831939894217    1.35262581466983
C          11.06350650268857    0.12406694304893    1.45892727869707
C          11.24745972790492    0.80307293045871    0.10715728361716
C          10.24718208865500   -1.87468195323551    2.75638489812442
C           9.58511104067360   -3.24728497729221    2.73482474573235
C          12.44830361708332   -2.61952475982936    0.53490450252815
C          12.98446891471716   -3.44213068603939   -0.46833426609971
C          12.17895924727527   -3.78563359453901   -1.56526685863057
C          10.87714797662497   -3.34627775505134   -1.67838826944249
C          14.34164277693680   -3.92901092392959   -0.44122252780164
C          15.19977795520638   -3.86119722459394    0.59711613152240
C          16.55986975561714   -4.31314047127488    0.58712141741438
C          17.25689339756216   -4.70254511544444   -0.52787370354687
C          18.58930180953216   -5.11753619734826   -0.53929339935261
C          19.38155724192133   -5.16567829590009    0.69371618762500
C          18.90670227252358   -4.82499279542207    1.91224996961605
S          17.30196673029454   -4.28939931595496    2.18347015520079
C          20.67139870742620   -5.60315158137293    0.29089265539996
C          20.69997440285423   -5.80520079021579   -1.09142010666692
C          21.96770176799652   -6.25821506415039   -1.52264687923769
C          22.84120556090893   -6.37503675673257   -0.48852614166362
S          22.17435927892740   -5.94870626601560    1.04930847256053
C          19.39629653960721   -5.49985498057808   -1.62772744910537
C          18.95584165833258   -5.54195773614863   -2.97155474736013
C          19.72764597567188   -5.71516705537395   -4.07386007554570
C          19.21941169725957   -5.71628641068605   -5.40118045540421
C          17.92054878462138   -5.71017840120679   -5.84321697621073
C          17.79223627960668   -5.67223908206154   -7.24735444558591
C          19.05789737641834   -5.64746774086519   -7.90120145658876
S          20.35709345782812   -5.69655833482686   -6.74214099642109
C          19.18357597142581   -5.57639583722790   -9.26620098770066
C          18.01161165488981   -5.52488394083053  -10.02935157970959
C          16.74681756299732   -5.57700479788413   -9.37855639070091
C          16.62343336129332   -5.64695106222673   -8.01044686528977
S          15.44532206967332   -5.52110067459798  -10.52758169371819
C          16.57891626539789   -5.35432912051303  -11.86039444006435
C          17.88235320927678   -5.39130597976411  -11.42496765483708
C          16.06765746345004   -5.27459165459686  -13.17652725697148
C          16.66084635141130   -4.80659841382209  -14.31059065927810
C          16.09866307994664   -5.20848846990680  -15.62959894662849
O          15.03694958205374   -5.75453101913221  -15.82705828232322
C          17.13109085596075   -4.84812382182732  -16.61997046644615
C          17.15868154504217   -5.09715758458721  -17.96157070675298
C          18.27507090219788   -4.67551381029291  -18.71821541547176
C          19.34994223662680   -4.00765003974170  -18.06251265498220
C          20.46290313017815   -3.59572666548157  -18.82106901214993
C          20.48622867929936   -3.84054060424149  -20.16581183456056
C          19.43868389158042   -4.49349891364658  -20.82932525603349
C          18.35176765933008   -4.90223357972057  -20.10762519814370
F          21.54817448855515   -3.44607632573989  -20.89262260321433
C          19.29111315933769   -3.75778320356102  -16.67138143334786
C          18.19355738046792   -4.16434277560067  -15.96213773615238
C          17.84124840838929   -4.00766564351946  -14.55194238456080
C          18.38887781646595   -3.07450121045248  -13.70878881957693
C          17.86097969031314   -2.74492461669929  -12.44477968484204
N          17.45168858090632   -2.40592320371910  -11.42729277768841
C          19.49544380651840   -2.26794696948299  -14.04232688316440
N          20.40956175413862   -1.60521834206055  -14.25169242761396
H           1.34785340943456    1.76108947889510   -5.56136098944619
H          -2.43982023706012    2.36120689774048   -3.69019873067850
H          -1.39145546671903    2.14703018503299   -1.45050649970064
H           3.35348828605391    1.39987999934659   -4.20634148184987
H           0.61172480386610    1.76678880799248   -0.05529745646702
H           5.42835491749819    0.33838249130874    1.63345788792604
H           7.91533499717137    0.11919420923890    1.93746456040518
H           7.93237047074137   -2.55900083668598   -2.24741301404686
H           5.93467950446409   -1.28105651475247   -1.59264971334560
H          12.03633455674452   -0.00137303732921    1.94016190646538
H          10.45233048796533    0.75959140704222    2.10289184197693
H          11.86696485817318    0.19462001059314   -0.54833043234300
H          11.73422382928660    1.76625771841580    0.24087016174443
H          10.28984348501464    0.96872694850887   -0.37894610115216
H           9.65818692791563   -1.19709360465660    3.37776685109972
H          11.23977393372939   -1.95856547611676    3.20380124507042
H           8.58433191223650   -3.18517111658727    2.31293365088729
H           9.50835829748959   -3.64178675681306    3.74538653028630
H          10.16637461172943   -3.94520427296671    2.13598218399550
H          13.05605302501228   -2.32651847544068    1.37692292241110
H          12.59563708857873   -4.41580443515282   -2.33819915059839
H          10.27570581055072   -3.62449740958859   -2.53063083842377
H          14.66604709063398   -4.40023877209774   -1.35947251554407
H          14.86721647493291   -3.45227387099694    1.54147034983869
H          16.73238645324263   -4.66189224436126   -1.47117319387886
H          19.51173287996210   -4.86153698255079    2.80439423753630
H          22.23698832733917   -6.49881101013771   -2.53436518915103
H          23.86440712010824   -6.69410988284215   -0.52845668658747
H          17.89558867899662   -5.38755466721213   -3.11831205975213
H          20.79720526793148   -5.81484605735080   -3.97651667502561
H          17.06994203651967   -5.73647930641926   -5.18666155507824
H          20.15017671499763   -5.54304166352905   -9.74340740270172
H          15.65604436833614   -5.67244320126818   -7.53479861449628
H          18.72720773271461   -5.36377882165400  -12.09118692103848
H          15.08025421100773   -5.70212982249587  -13.32593757635150
H          16.33767188364562   -5.60889139982857  -18.44099730128316
H          21.28562778668230   -3.08632641252472  -18.34405448704711
H          19.51258473510907   -4.65867586564620  -21.89250904897928
H          17.53207762326257   -5.40717453984914  -20.59628207376511
H          20.12186556595780   -3.25622663178119  -16.20076284331221
