101
 SCF done       -198.337545449648          0.000697985620
C           4.31575559952732    5.85466170610611   -6.97369653468992
C           3.07809646365638    6.13348239299207   -7.48328042892168
F           2.97551323782734    6.74668952105367   -8.67629012837301
C           1.89512619486256    5.80326241377247   -6.80803456412312
C           1.97845781052199    5.17807475498898   -5.59512178576176
C           3.22881098956889    4.86540086546374   -5.02335942765825
C           4.42044874090541    5.21305478718948   -5.72439307130948
C           5.68698885600714    4.91875715199111   -5.16690577713358
C           5.75436431022133    4.29370446030112   -3.95181270739789
C           4.56033591847548    3.92671781377253   -3.26691116401223
C           3.32562816108845    4.20772752886041   -3.77661338924108
C           4.91305081690577    3.21612448814914   -2.02442984023195
O           4.17084434461589    2.80082442682685   -1.16387362039770
C           6.39412387615529    3.05337172808276   -2.07262827792661
C           6.89901083405514    3.89374851367471   -3.13564278349998
C           8.15234042685634    4.44256006230590   -3.22987800656146
C           9.17735976687537    4.22002962703432   -2.29108686143914
N          10.03196023467670    4.07640077399304   -1.53756572583886
C           8.52911400205560    5.37128789256893   -4.22251726604253
N           8.88394295641800    6.13301779647187   -5.00385761060535
C           6.97189529763381    2.14505870430089   -1.23455828334764
C           8.23191214383674    1.52253397942721   -1.32806555696220
C           9.09063596158022    1.43227120863625   -2.41588826552531
C          10.23132137040596    0.69852847837176   -2.12711646969756
C          10.25156094773294    0.20596971493676   -0.80427055318727
S           8.85748876742564    0.64162344306126    0.06587095479594
C          11.45836747075917   -0.51196288437695   -0.61426857796798
C          12.20151223741246   -0.46216857690356   -1.80730171553098
C          11.46011717718258    0.30479012819424   -2.79338550107912
C          11.84207258368488    0.61304612141253   -4.06640340618988
C          13.07031680282430    0.18074407346724   -4.60883719156521
N          14.06365142322677   -0.17424029843463   -5.05873062417716
C          11.01617464515412    1.38085313563131   -4.91426541500703
N          10.32743395893724    1.99819917137360   -5.59226126988919
C          13.41115809064817   -1.14698294301894   -1.72447847170778
C          13.59572123567807   -1.72739603347411   -0.48366411688264
S          12.25365434049322   -1.40998427905748    0.60237532973870
C          14.71543289268528   -2.52128224683758   -0.07864563999400
C          14.81519725112157   -3.14020397297763    1.15984921164289
C          15.89636507723410   -3.94216756270364    1.52225386388242
C          16.97395235773255   -4.18069567236090    0.68218440899838
C          16.92560417194041   -3.52995059639929   -0.57184008782513
C          15.80761769740040   -2.72934496863708   -0.95320215724229
N          16.04064299231817   -2.28794648003484   -2.19765277553050
N          17.19959168623949   -2.79275850287019   -2.51185753155226
N          17.77917380050156   -3.53317079429990   -1.60995097285364
C          17.79891670630918   -2.52866613723625   -3.78364344527309
C          18.09194477646219   -5.04088083475790    1.03229946995000
C          19.36411202346804   -4.77506726061019    0.55595985120600
C          20.45913514403132   -5.55438949609152    0.90762456703854
C          20.34295753411793   -6.64161176604958    1.75804166715068
C          19.03408193286270   -7.00594559221134    2.19271893712817
N          18.85530807258453   -8.14930471300623    2.87834609651141
C          17.65140728369393   -8.44831360065628    3.28768851971452
C          16.55589843167832   -7.61470592027296    3.00562751971422
N          16.68646930212082   -6.53933255125510    2.27723259246191
C          17.91454959573176   -6.19331091626216    1.85215797409455
C          21.49997394560810   -7.40952582647268    2.12177833816077
C          21.70601184609043   -8.16119195442608    3.22800000765750
C          22.77152790243660   -9.20629609230043    3.21411105619667
O          23.68613883351039   -9.29723286757645    2.42929369563937
C          22.42001048036081  -10.12255829928565    4.31516493577723
C          22.97737061639426  -11.32544256760368    4.64142642812083
C          22.44470310185915  -12.06123474062215    5.72321221548019
C          21.33614116417487  -11.53361185307987    6.44813015864603
C          20.80363982046749  -12.27860194513039    7.51852691265319
C          21.35996840400885  -13.48541412117238    7.83924387382949
C          22.45085235962123  -14.02011392167374    7.14003656259554
C          22.98019027523240  -13.31069858570280    6.09832598468839
F          20.85136948242782  -14.19836662257173    8.86046082906177
C          20.78496503256975  -10.28027241947808    6.09381427027624
C          21.32219396320227   -9.58213180337889    5.04613676220051
C          20.97678073758536   -8.28411137613642    4.47614594778646
C          20.29230677706792   -7.29104042694044    5.12388898214465
C          20.13961393777138   -5.98700915067795    4.61313627835107
N          20.00094401023486   -4.90842622868354    4.24500070753210
C          19.66420059693711   -7.45887885685362    6.37373415627006
N          19.11430549969700   -7.55255834254237    7.37720032924494
H           5.20554451886186    6.12659053158878   -7.51964415451014
H           0.94688171023138    6.04847502507623   -7.25946990701303
H           1.08124983115383    4.91292765425717   -5.05628533928248
H           6.57283849748101    5.18256307335568   -5.72263677605777
H           2.43280608660093    3.92884625339989   -3.23731950977804
H           6.33063323383406    1.80603246651718   -0.42619808182819
H           8.85935992295155    1.84408965179668   -3.38105936673993
H          14.13901062306380   -1.23920929008265   -2.50903127810751
H          14.01528150763169   -3.00051027786488    1.87308500231794
H          15.89745274851787   -4.38907243605277    2.50233563655751
H          17.07101205987725   -1.99738514034745   -4.39307686016524
H          18.08255347317748   -3.46781286751367   -4.25767416975338
H          18.69254118162150   -1.91630216386836   -3.65542670351397
H          19.51016817352784   -3.92282024047869   -0.08780851477045
H          21.43895610994926   -5.27748031976324    0.54724500320442
H          17.53837267482568   -9.37876969561111    3.82781168610225
H          15.55799215539584   -7.85363815857793    3.34669699937023
H          22.29136760773278   -7.45331118067157    1.37951899535098
H          23.81271088919032  -11.71390265382740    4.07822972085873
H          19.96674736192809  -11.89635374642343    8.08189908023472
H          22.84749037448854  -14.97751468423890    7.43853373533062
H          23.82037449320918  -13.70167507959984    5.54444010110156
H          19.94160925305606   -9.90732098467252    6.65345230477993
