102
 SCF done       -217.425842819105          0.000823639168
C           1.23961193240605    3.78098925280627    3.94986993446932
C           0.13461641812350    4.58572066419927    3.98172876522922
F          -0.37867204498307    4.95884843293115    5.16669662488309
C          -0.49493897551720    5.04468309136867    2.81625072482769
C           0.01252788215025    4.67726078362297    1.60122441446417
C           1.15018490910004    3.84905896769481    1.50973786053569
C           1.77354860656718    3.38936759432832    2.70695781684682
C           2.90645287380443    2.54513473573100    2.64158696460808
C           3.39669673417777    2.17536041746650    1.41857859219243
C           2.78595430252219    2.65921656615031    0.22541213224332
C           1.68759673015648    3.46977500376763    0.25964914153054
C           3.53499221154633    2.16050670166053   -0.94057117686819
O           3.29076861718804    2.31995004269639   -2.11390458869446
C           4.71831130160740    1.44798403276508   -0.37253686926212
C           4.50274132893088    1.29444515276200    1.05143923175812
C           5.02803015507698    0.32636703351193    1.86734926540518
C           5.91825714367214   -0.67646162498249    1.43828211838563
N           6.62425879977439   -1.52923622133038    1.13293614369693
C           4.66390696446587    0.15705450599138    3.22044337665900
N           4.40504680178129   -0.02942555155649    4.32243279408729
C           5.75552118222590    1.14761944455052   -1.20141196465126
C           7.08518457874917    0.80925671908600   -0.86501861808947
C           7.77569116975906    1.05687800855208    0.31244243892370
C           9.07039072056563    0.55651869189048    0.27696453409902
C           9.38095413182913   -0.07659367673673   -0.94424103497153
S           8.08888784584984   -0.02067376686711   -2.04912375760099
C          10.68987376232480   -0.60917730076504   -0.84912719349525
C          11.20448994691377   -0.31719896297249    0.42784904974795
C          10.20206506490890    0.42507178488173    1.17682152678135
C          10.28048042703227    0.86548499343855    2.46501253481652
C          11.43265513818099    0.66987593995095    3.25521292563630
N          12.37612782968690    0.51361149715812    3.88746993979855
C           9.20350972579138    1.54195118184242    3.07656403496300
N           8.31887111425895    2.09038621424243    3.55730223804963
C          12.47786353118008   -0.84122159925797    0.63328391223699
C          12.93752853068975   -1.53151789841223   -0.47609492621896
S          11.77870839959103   -1.52114777824863   -1.79698738041829
C          14.16165397717699   -2.23148730767048   -0.60671239685944
C          14.61206233560181   -2.94429973590283   -1.70564711523737
C          15.84157247766322   -3.55045658152521   -1.46274721597208
C          16.33374834478422   -3.29712231206096   -0.16690780888367
S          15.28408828672812   -2.30475664293483    0.74439881356573
C          17.55875145392701   -3.98303359412263    0.00072028514657
C          17.84695253459256   -4.66864296667582   -1.19991616197851
C          16.77958311831469   -4.41929817347647   -2.15464765344415
C          16.66948412277752   -4.91999831638777   -3.41892436770891
C          17.63941347141406   -5.79317579163543   -3.95435459079660
N          18.42949172547601   -6.51146064144169   -4.37221054832046
C          15.57894677035836   -4.60742185939444   -4.25747373532359
N          14.69176363279591   -4.34877388903690   -4.93597611285752
C          19.02934984232114   -5.39091768374315   -1.13638375473765
C          19.65124005964103   -5.27955724117006    0.10330074455727
S          18.76599185156082   -4.20538602241122    1.18411699558672
C          20.85276960768737   -5.88001769951587    0.55902346369157
C          21.51840783512452   -5.33409149479327    1.67569913176715
C          22.78707452623503   -5.81871295123470    2.16294295830497
N          23.22429695991889   -5.08135705840429    3.19063927352133
S          22.15305789056553   -3.93469846999652    3.52134806012654
N          21.08708627349594   -4.28406151964723    2.37909670143827
C          23.45520447236940   -6.89690400620215    1.55162889839213
C          22.76424971786644   -7.49546902840059    0.45227626628640
C          23.16411842204976   -8.62638258220594   -0.22297099968106
S          22.02313186049239   -9.13349335521436   -1.37847998664048
C          20.97458068146391   -7.85255080948620   -1.00659787310304
C          21.47428376989035   -7.02367216243376   -0.01942831465703
C          24.73804561358169   -7.34670966611764    1.93107346788846
C          25.40716252441991   -7.21311953115741    3.11874426571730
C          26.88000556751368   -7.39770829778160    3.13581673760467
O          27.57216238369093   -7.82726293713738    2.24248676973606
C          27.31843304683424   -6.90865525934366    4.46694437344801
C          26.18412418160729   -6.56092312353800    5.22294758601366
C          26.33659448612310   -6.01696027105983    6.48699121065230
C          27.62060476527211   -5.84716502201635    7.00200865850432
C          28.74516535166001   -6.21769217926976    6.24679283694854
C          28.59358389210924   -6.75372835088991    4.96290270141688
C          30.06081392526182   -6.09031974818226    6.76035008139301
N          31.15541077350428   -6.06676780051947    7.09577497078602
C          27.84318028678659   -5.20965934476613    8.34285051112864
O          28.81728519275519   -4.55597334224894    8.58421362834943
O          26.88523058787735   -5.39833225337625    9.25872987103816
C          24.98328709017514   -6.88452132852120    4.45174946319819
C          23.73426326501451   -7.06659142804523    4.99470090280874
C          22.64600366285389   -7.62148037743219    4.29609751528673
N          21.73713974740850   -8.08748357777725    3.77091520223756
C          23.43604219918321   -6.80121510486871    6.34391259270215
N          23.16738780734824   -6.58294483334557    7.43932172258893
H           1.69618517443906    3.44304443991870    4.86695785377766
H          -1.36428139817815    5.67684838272267    2.90371725423468
H          -0.45486163779074    5.01867425018769    0.68992542898647
H           3.36528686433877    2.22084328607013    3.56208179220896
H           1.23381718263723    3.81737254705720   -0.65629286078764
H           5.53244494606325    1.23301156592583   -2.26080773372373
H           7.35373948536318    1.60732627311345    1.13354784591901
H          13.05106274877008   -0.74351560385662    1.53785758783117
H          14.05593803086921   -3.01213788209043   -2.62351252200236
H          19.45395364239623   -5.92448957198568   -1.96460055294021
H          24.05670048042607   -9.20016599107494   -0.08018600553914
H          20.02259459324332   -7.81557541407747   -1.49279862293289
H          25.32653681852735   -7.81543108697775    1.14858043101586
H          25.47524265222377   -5.68380194292358    7.04650937783195
H          29.45502686222921   -7.03477967133126    4.37635983802984
H          26.15597538819490   -5.96118298016639    8.96304133556320
