100
 SCF done       -203.206334292065          0.000612302516
C           5.82404783110262   -3.97922731459649   -9.23989556896705
C           5.17016190421872   -3.74351070611207  -10.41726641935394
F           5.55984503386425   -4.38851987364161  -11.53136404091236
C           4.09828867255037   -2.84578944999724  -10.51518978882303
C           3.68899568943549   -2.17973234851446   -9.39365446179196
C           4.32838641820173   -2.38340431179819   -8.15355358441901
C           5.41556052577364   -3.30228515347889   -8.07447107209569
C           6.06844006870404   -3.52855100107685   -6.83998906622379
C           5.64918695852555   -2.85192656019723   -5.72743516935987
C           4.57210816978062   -1.92281242574985   -5.81499891638981
C           3.91844566007797   -1.69286542810716   -6.99093517085261
C           4.35224929035927   -1.30359554500117   -4.49354687943820
O           3.49623428251992   -0.51226205665971   -4.17263646371411
C           5.46629208935212   -1.80691099268648   -3.64130052624193
C           6.09992359309721   -2.90217267594106   -4.33943321653895
C           6.76038663933103   -3.95431190076918   -3.75871400877606
C           6.90236645433000   -4.09284171446944   -2.36330627954322
N           6.99334553520686   -4.24713439079864   -1.22915776075005
C           7.27942127463670   -5.04743692444227   -4.47993109922642
N           7.73706824297033   -5.94690259082179   -5.02680729990171
C           5.76940009603110   -1.14105216406395   -2.49180071720352
C           6.97104325129272   -1.08945142331929   -1.75540386442846
C           7.11771465106045   -0.50080629131515   -0.50609704572005
C           8.43500092417196   -0.50769186181891   -0.06542778801767
C           9.31913213150094   -1.08666868249015   -1.00170345799201
S           8.52339542879795   -1.62508960499125   -2.40468777379902
C          10.63113580626981   -1.01913187859043   -0.48218818645138
C          10.58865991030197   -0.39800945505749    0.77725985350226
C           9.20356855582384   -0.06163884851199    1.08260801499349
C           8.73746141850458    0.55324814486987    2.20672556006198
C           9.59651352337339    0.94969519148362    3.25349773331828
N          10.29749445934378    1.27567232567549    4.10022871095488
C           7.36911262086852    0.84435938926440    2.39376759100587
N           6.26037952977074    1.09109958011595    2.54742694158557
C          11.84448412693492   -0.26487699744651    1.36545726041194
C          12.84898466379128   -0.78485278547365    0.56649744651669
S          12.22227324431438   -1.45334441524585   -0.93426826447492
C          14.24237691795469   -0.78347419685908    0.83566033806133
N          15.16377325628387   -1.38240455065314    0.02861656461103
C          16.41804186442042   -1.16682044482709    0.52017454213330
C          16.29223900130771   -0.40596384425322    1.68265313069228
C          14.93863649665311   -0.17294643164586    1.88223561559910
C          17.56662925783431   -1.64408915773570   -0.09465140226214
C          18.57040486090911   -2.06446544097411   -0.63479435291322
C          19.72965333986408   -2.49658152042594   -1.25384947615099
C          19.87721959845244   -3.59570188783643   -2.08141159694723
C          21.18650418222127   -3.71867364940994   -2.54439222823500
C          22.03368289345862   -2.70073857857098   -2.07150168520070
S          21.22891676113021   -1.60020941948053   -1.04124160826766
C          23.32599056993154   -2.90180630776379   -2.61267793201198
C          23.30096378968667   -4.05463659902737   -3.42478774767092
C          21.95742508740520   -4.60821758785382   -3.40149961345351
C          21.50886161646949   -5.72167702744493   -4.04822583976427
C          22.35078134101540   -6.50859835195892   -4.86306535869436
N          23.02764424600680   -7.14771646274290   -5.53177276419197
C          20.16896281134235   -6.15325376782941   -3.95152881373603
N          19.07826973460812   -6.49874320363678   -3.87809369403768
C          24.52594471154924   -4.31239534542843   -4.02745951631867
C          25.49810552341321   -3.38635193342506   -3.67174595271082
S          24.85159908514436   -2.15223591374910   -2.58908101895242
C          26.80310880405529   -3.33667956321639   -4.20645555034019
C          27.87467399197635   -2.57470258279897   -3.85186522044441
C          28.93696681114021   -2.31129733117319   -4.86442749024493
O          29.11045142578169   -2.90658880275182   -5.90209659423252
C          29.66462655883893   -1.13256274571577   -4.35606812006969
C          30.63985512383953   -0.39678176307386   -4.96495402940717
C          31.17384775363795    0.72723129794279   -4.29577976996785
C          30.68190224427837    1.07024668710410   -3.00229777772115
C          31.21229096505246    2.19814725067760   -2.34668833388234
C          32.18584222262791    2.93575937140949   -2.96110683974122
C          32.68410796086122    2.61373246210474   -4.23098158766746
C          32.18001632912296    1.52239176693327   -4.88195625653186
F          32.69265923544944    4.01359231879143   -2.33655509694885
C          29.67767947133574    0.28368319942251   -2.39065083936290
C          29.18098460902507   -0.80323418319319   -3.05650651001447
C          28.18419321304142   -1.79844770116941   -2.67218004666062
C          27.83583135516586   -2.11536324861606   -1.38473047513873
C          27.10859483829563   -3.27660425554833   -1.05367707659735
N          26.55071794830953   -4.23443061915156   -0.75473242842661
C          28.24492169670545   -1.37520954570797   -0.25790616505586
N          28.53551371105171   -0.79058153173007    0.68611439992778
H           6.64283009654628   -4.68058369583484   -9.20095774767008
H           3.62087762360966   -2.70034193528325  -11.47120049246907
H           2.86565268867261   -1.48323635366005   -9.44396447327817
H           6.89307815109628   -4.22324544778761   -6.80733844984954
H           3.09876477656992   -0.99152882680943   -7.03501450889393
H           4.99421579364856   -0.46498309903219   -2.14146159037783
H           6.28276866277227   -0.10744566903015    0.04534186052952
H          12.03327447732516    0.18142255786426    2.32364383867843
H          14.95296172675083   -1.90616770370268   -0.80576824071123
H          17.10323811781222   -0.07468562918225    2.29939623742080
H          14.49984794685093    0.38175647973576    2.68653628249995
H          19.06485331229896   -4.25883725719655   -2.31669675732037
H          24.73087530341198   -5.13689696102126   -4.68634109073396
H          26.94485340031437   -3.92631685289697   -5.10812590275166
H          30.99952090994330   -0.66771435625558   -5.94622997639466
H          30.85552713134640    2.47340774381075   -1.36650245146787
H          33.45255391230602    3.23283210339404   -4.66598220547805
H          32.54762408740514    1.25440977508810   -5.86101330910989
H          29.31643998750059    0.56793941265158   -1.41473402495408
