132
 SCF done       -252.047927910173          0.000845367861
C           3.49148454940894    4.68332975039187    1.74674225429136
C           2.19448584107414    4.86746279660713    2.13781806580818
F           1.93361509717968    5.28609736307108    3.38929536577873
C           1.11068692155799    4.63428678771706    1.28027565218071
C           1.35620194206357    4.20720450208442    0.00495715026165
C           2.67426275392172    3.99986765781779   -0.45109122510702
C           3.76288000428385    4.24439983321637    0.43636857870059
C           5.09429508920757    4.05040743093958    0.00004849075769
C           5.32371737516794    3.62164271737829   -1.27860341184845
C           4.23187536571315    3.36369194639602   -2.15735742596346
C           2.93801007007471    3.55105364275243   -1.76486981453461
C           4.75013219420441    2.87510486488247   -3.45060561889225
O           4.12661570956429    2.60632384227352   -4.45096873557451
C           6.21618590443053    2.71117129256283   -3.24162712513172
C           6.56576300385851    3.37137119608597   -2.00347883211593
C           7.78443920424932    3.92043236237607   -1.69760007877646
C           8.88382164406925    3.89266839711009   -2.57965967783818
N           9.78098572913135    3.91783498339750   -3.29561858875897
C           8.04438331756691    4.64255316745369   -0.51632539173204
N           8.30930235522401    5.21764551674617    0.44107993108598
C           6.93372240202798    1.93991094482921   -4.10539248817706
C           8.16331615239235    1.27564801866417   -3.90540676504409
C           8.95320925866542    0.71152125748937   -4.89762164174318
C          10.06896537498831    0.06216734064901   -4.38238829863634
C          10.11537920412803    0.09718627604000   -2.97332919255572
S           8.80322052380092    0.93746858924616   -2.29514090132165
C          11.26637830904395   -0.59979261865454   -2.54022180739374
C          11.95652075566264   -1.07536033574369   -3.66813260021421
C          11.22665558596522   -0.67414041084514   -4.86321872067682
C          11.55844338940112   -0.93987286346305   -6.15850467693678
C          12.71619488006789   -1.66946703375472   -6.50367148967519
N          13.65309024435460   -2.26502302708684   -6.78935155891578
C          10.76124303524505   -0.51193681154937   -7.24176371606507
N          10.11335292310611   -0.17766627653836   -8.12630244117459
C          13.11168642973612   -1.78334397510274   -3.33683850620924
C          13.30431895793077   -1.84593567104520   -1.96891543345138
S          12.04023306864639   -1.01848449156889   -1.07563861693170
C          14.35765342841471   -2.48830693342681   -1.26479834059521
C          14.54765281817960   -2.51484548784461    0.08978293236748
C          15.68089728233697   -3.25916056582097    0.48687703761222
C          16.38503902035780   -3.78828978693702   -0.62554949932953
S          15.59700892885199   -3.37727253276658   -2.12862228603530
C          17.52640120937943   -4.56384994894934   -0.50422214954655
C          18.20553411305894   -5.13504899549395   -1.67395752789812
C          18.56203495777250   -4.32772087752155   -2.75000564617665
C          19.20191822986598   -4.86736722379778   -3.84910921875035
C          19.49817064151881   -6.22301338169867   -3.90956941667410
C          19.13191473939840   -7.02868254691289   -2.83635654551361
C          18.49636417466609   -6.49637568417985   -1.73288865301487
C          20.17651697504969   -6.81542829352733   -5.10479468290304
C          17.99381906204859   -4.78927980444049    0.80404782926770
C          17.29762264611753   -4.24384467754814    1.91383049393454
C          16.14051323664143   -3.49460521886957    1.79503220460712
C          15.41889149577589   -2.98777607564096    2.96941724412710
C          16.08242936323991   -2.24957659310996    3.94411658198764
C          15.40197616872745   -1.77872015290576    5.05092390213241
C          14.04821305494624   -2.03660159664115    5.22022372730925
C          13.38972003220666   -2.78150145710098    4.24699613009683
C          14.06065813601446   -3.24960535045072    3.13558346742866
C          13.30604960645630   -1.54164667563102    6.42245803579777
S          18.05769202740132   -4.68735650593533    3.41911767377654
C          19.30278648048186   -5.57426486848016    2.56221828211701
C          19.13506807848195   -5.52291611525934    1.20450137571235
C          20.32154732584052   -6.25394660657236    3.28636921103337
C          21.29808452052960   -7.09298334098177    2.77830364810008
C          22.10914905151094   -7.61500168411757    3.78483492003889
C          21.75075881202582   -7.16352975747000    5.06758788870263
S          20.41408621096796   -6.10127389018710    5.02971205238285
C          22.62114592287563   -7.75319030094872    6.01604607241573
C          23.52852323912672   -8.58744125273004    5.32938758012086
C          23.24078538785488   -8.52081992097795    3.90742349455072
C          23.90574361748843   -9.16426292742965    2.90497293227497
C          24.99829249600769  -10.01522040360112    3.17445992345715
N          25.87957190798308  -10.71030378972948    3.40941428658366
C          23.53468180010503   -9.02761281206247    1.55131017772734
N          23.22207694641896   -8.92067975706638    0.45328102990505
C          24.43884742097338   -9.20824405880154    6.17322885491847
C          24.24735939378943   -8.85841037334775    7.50347521907675
S          22.88497808904084   -7.75481533079427    7.69478900700131
C          24.92390077912340   -9.30003159597322    8.65756499803312
C          26.12079017352292   -9.94315923573601    8.77666382733701
C          26.39450020007616  -10.68425280796445   10.04140419074068
O          25.76343373837928  -10.60667770906365   11.07083464489959
C          27.54283874497925  -11.55678620718526    9.74015152512834
C          28.11193002175114  -12.52626152677036   10.51447625340624
C          29.19610440004045  -13.27092794820685    9.99897815101071
C          29.66557927699902  -12.99927066236820    8.68062303240286
C          30.74008261759075  -13.75269640111390    8.16966237554446
C          31.30987265829924  -14.72216816587650    8.94741500460624
C          30.86396787173909  -15.00294671447656   10.24616195952010
C          29.82087021723764  -14.28220787446106   10.75730721772958
F          32.33719607816827  -15.44201612536518    8.46201719774215
C          29.06054640761225  -11.98365033929000    7.90327348165526
C          28.02046171183328  -11.26716555053991    8.42958671385156
C          27.23627990455823  -10.16087387731698    7.88311250558367
C          27.65056769276439   -9.33944565387046    6.86577877508399
C          27.00194002884369   -8.14122374289057    6.51310440146980
N          26.51175340504001   -7.14714288388530    6.21245875951301
C          28.83111960641595   -9.54539300744130    6.12149737394177
N          29.78203161864748   -9.66283280702397    5.48997685260567
H           4.30154845287999    4.87666588612617    2.43249539741264
H           0.10870840713311    4.79660633936155    1.64457824358144
H           0.53760895979295    4.02104471948246   -0.67382698509383
H           5.90076078715240    4.23475676954729    0.69231511987095
H           2.12404758711935    3.35817175425562   -2.44746305842402
H           6.44494448174418    1.73140580965014   -5.05272832025711
H           8.71871230696644    0.80635978976189   -5.94258681540891
H          13.78982096017624   -2.23636373977563   -4.03756184614064
H          13.89939489975554   -2.00515602275092    0.78067554606970
H          18.35977705392986   -3.26740567205975   -2.71347731415139
H          19.47788272398024   -4.22333808168320   -4.67132902662046
H          19.34888375374593   -8.08671216801467   -2.86815640368817
H          18.19808616645275   -7.14095656360465   -0.91834754149668
H          20.64370954621190   -6.04347695313069   -5.71084203915369
H          19.44814667913777   -7.34045985906416   -5.72337489098360
H          20.93445394300860   -7.53427425436922   -4.80027174470944
H          17.13152449683562   -2.02369613728563    3.82202852852145
H          15.93251692029351   -1.20007397914859    5.79309447997328
H          12.33749381913403   -2.99765358213723    4.36604522252664
H          13.53891617013187   -3.84501704425473    2.39998026662630
H          13.92280150932197   -0.86876298050976    7.01232102364933
H          13.01087038684031   -2.38054377357557    7.05248766943921
H          12.40009916321033   -1.01692570203442    6.12358178124894
H          19.81268631904105   -5.98114137427487    0.50803578884427
H          21.39902588010874   -7.31280160334711    1.73182714580485
H          25.17718488245109   -9.92149249763100    5.85547902178781
H          24.38771542884601   -9.17897105679423    9.59473487080820
H          27.73933135451201  -12.72344016130238   11.50841906712391
H          31.11179249299806  -13.56157022438589    7.17519925203962
H          31.35226589460459  -15.78003971231645   10.81254287071557
H          29.45916505626344  -14.48018361134001   11.75507040007274
H          29.42796375654089  -11.80680888641983    6.90490508321893
