105
 SCF done       -224.636466948920          0.000920040323
C           7.03461744001705   -3.47820720986730   -9.49762675549322
C           6.07497252059312   -3.69191549525598  -10.44897737298474
F           6.34297800531608   -4.48860249331971  -11.49444505250321
C           4.80312689932185   -3.10495023651908  -10.37853477325291
C           4.50835020488498   -2.28596400461415   -9.32432763429793
C           5.46005217736055   -2.02976529735420   -8.31602306562493
C           6.74604340757699   -2.63996033520499   -8.40284606407966
C           7.71842837457025   -2.38844320484311   -7.40775561940343
C           7.41657762261040   -1.54531105550924   -6.37287786454825
C           6.13111481309726   -0.93655520020824   -6.29292061286974
C           5.16983146473396   -1.17147925290482   -7.23212917675868
C           6.06598164124196   -0.07853063716853   -5.09328476780705
O           5.15586402030784    0.62804947961164   -4.73306355773596
C           7.34818290459188   -0.32627233027774   -4.37349307112662
C           8.22506572720733   -1.05391721921612   -5.26526737237789
C           9.59735736424246   -1.06378462956986   -5.22974497588945
C          10.35165821482525   -0.26749049413323   -4.34305313420007
N          10.99837164217972    0.40467640297979   -3.67382094400885
C          10.41393390647491   -1.84965705980021   -6.05820368055631
N          11.14883913685645   -2.51639088241496   -6.63887864269236
C           7.45326149702260   -0.00439238467568   -3.05276308646143
C           8.36610907544566   -0.51397681512307   -2.09969014746783
C           8.73449991000194    0.06993114247806   -0.89486844864183
C           9.73188337792783   -0.65060948471580   -0.24130681493379
C          10.08784406793090   -1.81998873902055   -0.93860631044332
S           9.18614597274678   -2.05343661514164   -2.35660936613122
C          11.22266210233412   -2.39092392554151   -0.32451549026266
C          11.59374179873555   -1.60298050567054    0.77617297946020
C          10.63346944274901   -0.51030096099554    0.89668342773322
C          10.60317613713519    0.45609412149113    1.85644802017188
C          11.54081802956841    0.49240977116379    2.91149761426858
N          12.30023302031952    0.51976167310720    3.76918453963851
C           9.62159958649123    1.47114627019561    1.86502357316893
N           8.81942404279868    2.28924790225677    1.87646377347715
C          12.82885628842830   -1.98331795500167    1.31559370131354
C          13.40594271691373   -3.01193806402395    0.59807888776220
S          12.36908194064984   -3.59180436296736   -0.69739740073371
C          14.75686005729155   -3.47564527578850    0.58687744997656
C          15.35947185975539   -3.91932753792956   -0.55733318864123
C          16.74838568495226   -4.11754486707459   -0.42757301097297
C          17.70535886035895   -4.39484464607410   -1.42452237299649
C          19.01556605706982   -4.60447464038979   -0.97041951478757
C          19.27687363205268   -4.47258240125288    0.42226751651149
N          18.40465133881877   -4.10772561529326    1.33727508363318
C          17.17226504687624   -3.92799764226034    0.91370569450417
S          15.87550416004847   -3.37270902225509    1.93292940059736
S          20.94844415141689   -4.74774565904179    0.82204626893833
C          21.30134618404251   -4.99864703973130   -0.86545481870870
C          20.22221523146784   -4.88455587229349   -1.67880809257686
F          20.28861864208864   -5.01493667317877   -3.00967026230498
F          22.54398643813762   -5.26448179114841   -1.24156475366377
C          17.30085834222236   -4.33717783750911   -2.81572876728382
C          17.55116626336377   -5.17929693877393   -3.87324204075882
C          16.86821231509713   -4.78292034713555   -5.03317893621572
C          16.10776103417497   -3.62081450996532   -4.83956023718533
S          16.25109884909557   -2.99493142649282   -3.26789417094162
C          15.38068681013497   -3.33703736846101   -6.02109562250122
C          15.69695286512999   -4.31335303633725   -6.98491712496058
C          16.65551865724090   -5.24442021079485   -6.39848979933692
C          17.22046128659417   -6.33076828968328   -6.99705218802581
C          16.93499567295230   -6.68355854030338   -8.33381376247200
N          16.70021506116403   -6.97902280965889   -9.41617081048197
C          18.11288408864070   -7.18617018258126   -6.31494903472451
N          18.82404688500776   -7.89394491628573   -5.76068505251336
C          14.96849934558776   -4.14578026473621   -8.15833723625665
C          14.10929044386888   -3.05257477088876   -8.09869686525630
S          14.20221507133552   -2.23663052047836   -6.54427234795556
C          13.14637346595667   -2.70838948769968   -9.07375241312890
C          12.30304041394402   -1.63961287067612   -9.11666545851638
C          11.02743699563629   -1.73915736800990   -9.87995671850334
O          10.73546010369220   -2.57116893123715  -10.70675805453058
C          10.16299672262586   -0.67541081627522   -9.32586038660428
C           8.84997987897988   -0.40599178622904   -9.58375525146584
C           8.19105647446492    0.59519839691895   -8.83443697382268
C           8.90269181070651    1.28385049601527   -7.80914186139135
C           8.22231791427105    2.23154147364774   -7.02104510701514
C           6.90437354609394    2.49587635305177   -7.27527527615137
C           6.19658854223967    1.85291929521207   -8.30017386729820
C           6.83715668458719    0.91556518167012   -9.06192932629530
F           6.25920017933875    3.40796749741306   -6.53385988154171
C          10.27871514602218    1.02513313689711   -7.60265143485077
C          10.89967457039708    0.07483708411155   -8.36457805268264
C          12.28443103242225   -0.38527709092578   -8.39322993113801
C          13.36946337327419    0.37786026253381   -8.05758400954158
C          14.69231060794433    0.00177399530131   -8.37054375421831
N          15.77197903523870   -0.27064463306752   -8.64790952841346
C          13.26607412085503    1.65160005067110   -7.46214361331335
N          13.22118728912005    2.68630779402430   -6.96874523636949
H           8.00753477508241   -3.93474493242841   -9.59293751300285
H           4.08672302305266   -3.31141572630212  -11.15780490043294
H           3.53686558627193   -1.82101334112283   -9.25051289433953
H           8.67789201720356   -2.87587832673424   -7.48497161952664
H           4.20133103238518   -0.70096420069222   -7.15478144957335
H           6.70444404150917    0.68600663140766   -2.67684113784898
H           8.32933715337813    1.00882584066238   -0.56256756917089
H          13.32351271016205   -1.50323098453586    2.14059843044029
H          14.80911141145896   -4.07603862813107   -1.46631648257057
H          18.16464600784293   -6.05820997813253   -3.79745914544279
H          15.04246309043036   -4.77321415120687   -9.02848114882370
H          12.96739751659535   -3.46723439947864   -9.82954285234420
H           8.31373696706354   -0.95426573177083  -10.34369821254197
H           8.74297474812949    2.75565257892029   -6.23439323729937
H           5.16265003118259    2.11169811507514   -8.46261851327241
H           6.31202567302534    0.40542317975232   -9.85565543949033
H          10.80498947655631    1.57517676339846   -6.83714689369962
