107
 SCF done       -217.224681502470          0.000278959088
C           1.28431484133710    4.97497840104350    1.38374054694528
C           0.32440402439932    5.92523017027853    1.17185797612745
F          -0.45391740947324    6.32041791754905    2.19512381943930
C           0.11324893191892    6.51387172578514   -0.08255333147263
C           0.89453064283641    6.12607639617034   -1.13525273143099
C           1.89936880489334    5.15025489190223   -0.97337274645928
C           2.09638365476768    4.56153663745899    0.31000454925380
C           3.09054666890411    3.57236952946400    0.49529682802916
C           3.86019563482103    3.18917448606916   -0.56900651960308
C           3.67477476673594    3.79745478838737   -1.84393830869122
C           2.71814253237828    4.74873447581653   -2.05251199782158
C           4.66213561094456    3.24926846280828   -2.79100491428591
O           4.77846497797173    3.48622453028825   -3.97181802284708
C           5.54444582690078    2.36900779402644   -1.97290567787015
C           4.91885586917119    2.18810076145760   -0.68133155658636
C           5.08068822844386    1.12815415173191    0.17372716970100
C           5.94329787044983    0.04287755989455   -0.07017545156352
N           6.61326762171651   -0.87420560492862   -0.24083412455464
C           4.32681965624217    0.94831856140061    1.35255354151054
N           3.73963986748742    0.74899541154334    2.31799392035064
C           6.73664436812223    1.97104686033921   -2.50199874098900
C           7.87865398893046    1.47850193546888   -1.83891881119623
C           8.22725272880582    1.58213031027836   -0.49914258116815
C           9.44750559605070    0.98192406424045   -0.22385642472102
C          10.04977688998561    0.41128861890823   -1.36551538909740
S           9.12153649363444    0.64544400007907   -2.77134167997685
C          11.25810978529257   -0.20686371018741   -0.96795013940341
C          11.42333138613226   -0.03335314761161    0.41776840624508
C          10.28569812250455    0.71596234155076    0.93112462314453
C          10.03191445930648    1.06764790769450    2.22397120008373
C          10.91259828747464    0.74943002493932    3.27909100161877
N          11.63335654332551    0.49727864650437    4.13409134671228
C           8.86388499469186    1.77753471545359    2.57494017634208
N           7.91277336763604    2.35940403738521    2.84279122179694
C          12.58495569993245   -0.62646533646674    0.90718255474434
C          13.30818175916456   -1.25339969582735   -0.09329386710115
S          12.53745434650435   -1.10159257844819   -1.66503831072999
C          14.52338846294705   -1.96921907646527    0.03706641230199
C          15.21883772109976   -2.61980251892530   -0.96399022962587
C          16.36565226678839   -3.23979425097871   -0.46957981670988
C          16.55179198060224   -3.05693191983066    0.92195197703176
S          15.29030127539687   -2.10995476586867    1.61550631211261
C          17.71857732850517   -3.73745676274512    1.26048999275226
C          18.20998185285626   -4.31860891017954    0.06591795526329
N          17.37520466767872   -4.01375497645381   -0.97499901294210
C          17.55157743838532   -4.38249508508923   -2.35204453801305
C          19.37921565138033   -5.05545966512896    0.24747230503325
C          19.78784607612432   -5.04197152321026    1.56768226987882
S          18.72413328214285   -4.10428849461611    2.61070263163481
C          20.91419575259157   -5.70146178862464    2.11627069514629
C          21.35801776373922   -5.67342055703137    3.42859765945566
C          22.48709886840222   -6.46714480115371    3.61430642002401
C          22.90685661341617   -7.10864718864870    2.43570619457293
S          21.91474781410099   -6.72402808589716    1.09706865644152
C          24.02952178849373   -7.91159707756713    2.73117554291957
C          24.33697284758217   -7.77308033297856    4.10164146629664
C          23.38129672443595   -6.85643902194209    4.69793453258847
C          23.33008373045836   -6.44078065447979    5.99532013214468
C          24.26453439487488   -6.87384083187163    6.96048876874313
N          25.02667674334946   -7.21434230040700    7.74615101367523
C          22.34843477933573   -5.53783532418139    6.45656220727884
N          21.55613228034624   -4.79964603233124    6.83277038616492
C          25.43096901609813   -8.53981501343815    4.48558438235986
C          25.93861786877262   -9.29856567479517    3.44080398924692
S          25.07232975023630   -8.99144711910847    1.93259948266141
C          27.05830580543766  -10.15585552407726    3.50599135174783
C          27.44093592327661  -11.14029967584597    2.64530084226887
C          28.86341242172522  -11.58080617094956    2.61686347056437
O          29.71433054220632  -11.33437681989895    3.43992351594398
C          29.01237032535110  -12.31427071252729    1.34419157424703
C          30.14270796057887  -12.82051204322341    0.77048369530508
C          30.04997452146030  -13.46512714470206   -0.48366382477444
C          28.78103505112940  -13.56758987198989   -1.12522349733449
C          28.69854013658127  -14.20151010620955   -2.38009616094109
C          29.83242242712017  -14.70726731148542   -2.95239480637259
C          31.08828205648973  -14.62021373894824   -2.33635351043270
C          31.18660935292826  -14.00633567233844   -1.11871870890471
F          29.75529975799119  -15.31260309683012   -4.15134441601743
C          27.62430747933859  -13.04302270732514   -0.50274854645055
C          27.73867357485515  -12.43240661190020    0.71604671306049
C          26.73490182419257  -11.84628822498723    1.59927770177964
C          25.40016830397610  -12.16151419098936    1.59452761529851
C          24.52109259895477  -11.81633571874327    2.64105075670448
N          23.78964925486716  -11.58569870276707    3.49557888846357
C          24.78145548945480  -12.93690760916660    0.59437883316508
N          24.22715507211640  -13.54369792394523   -0.20715699756081
H           1.41688174148425    4.54058271952965    2.36223461935928
H          -0.65928124844678    7.25874999723862   -0.18951341452165
H           0.75108134621065    6.56556652818066   -2.11090108930934
H           3.22674973740849    3.15139158262671    1.47880527363627
H           2.58808591948992    5.19132287468415   -3.02870371829155
H           6.82966999427976    2.11934311246971   -3.57379131482981
H           7.62984274957142    2.11116889425846    0.22074316759153
H          12.90358503575180   -0.61853189540777    1.93403695284469
H          14.89058626731038   -2.63161139094510   -1.98754659164039
H          18.16381679937245   -5.28067016502579   -2.40921594110226
H          18.04236618745210   -3.58242192875397   -2.91414694333085
H          16.58070179897684   -4.58500068399939   -2.80397453199515
H          19.91875280539487   -5.57907897408646   -0.52091714921849
H          20.86476085005618   -5.10053176475048    4.19307906961270
H          25.83455000558146   -8.58894081482918    5.48087583107648
H          27.75409004684243   -9.95158953361978    4.31463191184423
H          31.09732030926375  -12.73089723119166    1.26683571584309
H          27.74721801281705  -14.29080594434452   -2.88095857371123
H          31.94792568046746  -15.03850245237671   -2.83542258474008
H          32.14324760846071  -13.92707105799574   -0.62468982782739
H          26.67654629194357  -13.12766258128812   -1.01085069393289
