110
 SCF done       -221.173958530726          0.000592341469
C           1.39417201504585    3.77759182636811   -3.27632891894015
C           0.05549002771292    3.99584114922934   -3.10371265628292
F          -0.75601566514472    4.01743290526997   -4.17618090300497
C          -0.51645065745771    4.20037894005508   -1.84056572194587
C           0.29141794485413    4.18039097314931   -0.73795643688648
C           1.67852914184864    3.95785677864900   -0.85787651331861
C           2.24170014825067    3.75554080723048   -2.15183083810742
C           3.63238660008966    3.53975170082570   -2.29861646481459
C           4.42819586991658    3.52213581502300   -1.18588695004411
C           3.85606875335262    3.70114917986043    0.10657628871816
C           2.51981855878290    3.92206605646291    0.27640905662063
C           4.91245859435788    3.57622162687903    1.12588867856245
O           4.81742159080198    3.71752363298314    2.32385080411897
C           6.13654523569248    3.17279492095190    0.37571310640936
C           5.87219047658197    3.35080956117841   -1.03430752526261
C           6.79449908482888    3.58507474718362   -2.02201833359560
C           8.18162400934105    3.65068272238438   -1.79276614182943
N           9.31612044220467    3.73050055592831   -1.63314244749861
C           6.45296675674506    3.88970608216553   -3.35640709593106
N           6.22584080346199    4.14862043253355   -4.45087826343820
C           7.18328712787506    2.66385003226587    1.08678353234896
C           8.27176693770198    1.87874160645523    0.65956343689290
C           8.45221856910681    1.17012203078449   -0.52137433853860
C           9.65308769755169    0.47463980282923   -0.54111243915224
C          10.40359131651573    0.63938652470830    0.64428247961055
S           9.61895846595018    1.64046215090431    1.77317931801554
C          11.59878445142492   -0.10256104376214    0.52193414283165
C          11.61788675308661   -0.72707228392821   -0.73956554860523
C          10.39356347109967   -0.38235851541074   -1.44823343021519
C          10.01814375521859   -0.77676191218064   -2.69962622353626
C          10.81739225242880   -1.63835684521248   -3.47939998711228
N          11.46896734718629   -2.35742134490964   -4.09033489301887
C           8.79408782574566   -0.35967837167945   -3.26349012037713
N           7.78929322061632   -0.01993441156299   -3.69920034548302
C          12.75917968804706   -1.49398635063216   -0.95198179118817
C          13.61109188224131   -1.47489913139745    0.14302536821983
S          12.98534819331329   -0.47599009303496    1.44736717551616
C          14.84416812275352   -2.16886843132879    0.31411517579036
C          15.49588922297329   -2.81722018929066   -0.71115553398233
C          16.68018235034448   -3.53484724665712   -0.56436669239035
C          17.32290542165590   -3.68495962759556    0.74360047391296
C          16.87408688409920   -3.11362876649720    1.88215204590864
S          15.46435635778694   -2.14377769708193    1.96060686555347
C          18.45772712819613   -4.50862508590726    0.51365146090342
C          18.53580311694862   -4.85285563289949   -0.83845584847899
C          19.67980747627007   -5.64135536169753   -1.10300075769494
C          20.40442667549984   -5.87473573597261    0.02251921318016
S          19.74637785321200   -5.15011013194399    1.44750884361080
C          17.42662725510082   -4.24380710135803   -1.53301997958283
C          17.13458176213132   -4.28392383167721   -2.91304406708584
C          17.73292425078281   -5.11143118431653   -3.81458542192745
C          17.51221579924876   -5.09321133421775   -5.20894782929745
C          16.78551620606101   -4.19549727254801   -5.98486102581040
C          16.86776089620998   -4.48804898223322   -7.33998094966215
C          17.65011385675340   -5.62839286831467   -7.61565233003032
S          18.29090848568038   -6.32593521372772   -6.19422226437158
C          17.68392472967905   -5.83050824635294   -9.01076663307391
C          16.92991762498193   -4.80691035909815   -9.63003667850381
C          16.38961090008063   -3.93807552540482   -8.60192642169911
C          15.60211009652507   -2.83883325546449   -8.78379605191861
C          15.21559986643980   -2.41893914101849  -10.07408929929429
N          14.92248395930681   -2.08406577067113  -11.13091137556942
C          15.15693822539371   -2.05082782511394   -7.70207037975648
N          14.82064761700665   -1.40378329236889   -6.81713853989673
C          16.90548981681353   -4.91456626656599  -11.01259015466776
C          17.62225424141781   -6.01340832385646  -11.47101401872291
S          18.36085689222765   -6.90744877210550  -10.13963270836058
C          17.88311399093303   -6.43936091699923  -12.78605279438275
C          17.30180358407510   -6.06180108430743  -13.96236601100390
C          18.05511000522868   -6.30676786375434  -15.22426517258483
O          19.03289208951162   -7.00820846975628  -15.35492429928129
C          17.39095689467560   -5.47224451799022  -16.24144440195593
C          17.76413611041603   -5.22961048375830  -17.53164149835134
C          16.99105225825896   -4.34553820251279  -18.31706183910308
C          15.84383189895416   -3.72332982647001  -17.74368041611836
C          15.08698512228882   -2.83176054400425  -18.52826280298613
C          15.46549248933861   -2.58589823177454  -19.81885815247021
C          16.58793740166315   -3.18990906948001  -20.40146505382984
C          17.33468600869342   -4.05715805031104  -19.65367113225928
F          14.74414744121378   -1.73424986673058  -20.57029685639534
C          15.47427787800174   -4.00277285138471  -16.40662517009340
C          16.23281625766244   -4.87085924901486  -15.67010032319114
C          16.08624646040396   -5.35765392549628  -14.29909669085079
C          14.91024216536049   -5.35916608409646  -13.59239123737300
C          14.73382275489724   -6.04575606082162  -12.37668884154719
N          14.55349433020834   -6.61282965085147  -11.39450863018139
C          13.71810886248172   -4.76324318640186  -14.05359294847716
N          12.72246814249765   -4.30143593930623  -14.38812207859929
H           1.80027482235317    3.62741443648897   -4.26436172605117
H          -1.57921297221978    4.36799052551703   -1.76616606479565
H          -0.12561978790806    4.33465953023245    0.24588064876344
H           4.03108074827750    3.37975021033084   -3.28785378799093
H           2.10849866436846    4.06438120502202    1.26449919068423
H           7.11785476309711    2.83451706027456    2.15784345367208
H           7.71274064137683    1.13022771359285   -1.29996575798268
H          12.95147591731507   -2.05505554354572   -1.84736218263013
H          15.04970544007901   -2.75723004576190   -1.69289162685041
H          17.37580078571111   -3.22920058213087    2.82976057440464
H          19.97960652931359   -6.01617492055572   -2.06385000749176
H          21.31117417610178   -6.44072103345844    0.11009839884833
H          16.37566349907045   -3.59910485799553   -3.26479628310684
H          18.42694167398403   -5.85926913445827   -3.46335990004504
H          16.24211043619601   -3.36628887038979   -5.57149328911187
H          16.43792933606662   -4.20481857916953  -11.67005870753289
H          18.72719050062688   -7.11324575052455  -12.90414086091056
H          18.64086552076223   -5.70301797343806  -17.94760136868761
H          14.21471005941042   -2.35117263061334  -18.11368410761531
H          16.83799760285913   -2.95733086084592  -21.42444975467631
H          18.20431117152954   -4.53451785058853  -20.07979884617888
H          14.60758654823019   -3.51094175946642  -15.99417981854956
