139
 SCF done       -257.978718225685          0.000677181973
C           5.38339565415899    0.42100626310374    8.24628664634726
C           4.31794530099948    0.70572731898846    9.05408079282958
F           3.74974717283468    1.92325702676915    8.99551792154306
C           3.78415682408417   -0.22913771101505    9.95199192123632
C           4.34686072889110   -1.47279000513742   10.02441200156009
C           5.44653009526710   -1.82103387733655    9.21321709265349
C           5.97697141337573   -0.85486796663126    8.30886273152003
C           7.08560959299498   -1.17688520935029    7.49224216135343
C           7.64052970159210   -2.42565721626075    7.57562951166486
C           7.09362283521005   -3.39340006826163    8.46734618993149
C           6.02966026380351   -3.10615058043782    9.27322145085085
C           7.83756667882693   -4.65955634869028    8.32986602222651
O           7.69545845050261   -5.68029710713577    8.96096328705467
C           8.77501965548423   -4.44040773730712    7.18844690507764
C           8.78818837783236   -3.01902305106761    6.89526413553852
C           9.80399026153798   -2.31820793561262    6.30312540302960
C          11.02325656159923   -2.89346927692836    5.88558023029049
N          12.05577243350036   -3.28502066639245    5.57386236890107
C           9.77618935974835   -0.92380882935051    6.09678808672003
N           9.79088716486720    0.20237590644316    5.87452636588316
C           9.33581223490584   -5.51273225120423    6.57924940339676
C           9.97139935158632   -5.60290892453141    5.29236370278781
C          10.92872082804574   -6.60278544619837    5.07559069008180
C          11.57727601827734   -6.74428555867463    3.86444294955339
C          11.24934827845818   -5.89280758426300    2.81604034292149
C          10.28519928537080   -4.88059263484736    3.04217301036219
C           9.63475126687178   -4.73395186923318    4.24246602395308
N          10.15728518781261   -4.10633381606630    1.91029502550295
C           9.29445003642963   -2.96583431791395    1.77297903612757
C          11.04137549704030   -4.50628804898724    0.93977636208943
O          11.10968542332553   -3.98317812545594   -0.15152717326655
C          11.75880126328805   -5.71107837790119    1.47579353800906
C          12.62888831067459   -6.47760741346221    0.75229133515077
C          12.95383791476500   -7.91475452728404    1.05629938960051
O          12.56261522878376   -8.62256484380226    1.96000379036219
N          13.74587332341395   -8.36742113540530    0.03481221770401
C          14.25651272133393   -9.70848597099149   -0.03751765576564
C          14.01568109656093   -7.35656736125963   -0.86619365808291
C          13.34010733037417   -6.17958973600921   -0.46892665869953
C          13.55528321127747   -5.01415222362952   -1.19613356703533
C          14.38872619821630   -5.05124366184766   -2.29887981052765
C          15.01154761172881   -6.22969797566719   -2.71288268514263
C          14.82288405039736   -7.40524867619771   -1.97912011312383
C          15.87017312190214   -6.24035861770021   -3.90101780821774
C          16.78983543651523   -5.21351305054027   -4.11806087254688
C          17.64051431373424   -5.21334190348982   -5.20860713805276
C          17.57078431432676   -6.25738360340663   -6.12352220463821
C          16.59419710004063   -7.26027321275944   -5.92743452867281
C          15.76652020175887   -7.28166524099718   -4.82879768983413
N          16.61727070239788   -8.13741265584202   -6.99397849948595
C          15.76014712407475   -9.27928296743248   -7.15359562595608
C          17.53439643040371   -7.74488521451055   -7.93255876009013
O          17.73417509701347   -8.35475925330611   -8.96222384614569
C          18.23403139814159   -6.53564790784043   -7.37763992835206
C          19.33912254014178   -5.95701915407013   -7.93567398645040
C          20.32937285218963   -5.11924557012132   -7.17651313383496
O          20.32512119570666   -4.76927278370764   -6.01535549077110
N          21.37039504780151   -4.86343465433200   -8.03111076423447
C          22.53605589288014   -4.10425385412610   -7.67016610039767
C          21.13480686681768   -5.41096598976024   -9.27244801804768
C          19.89628566387660   -6.09388782677472   -9.26354753318104
C          19.44082728187619   -6.64047735257000  -10.45779117479349
C          20.23923858211440   -6.56749258360618  -11.58495885789843
C          21.49750430213889   -5.95814188734348  -11.56216255596591
C          21.93681317172697   -5.33652925651658  -10.38424913634504
C          22.37298636099968   -5.97161297539675  -12.72202737148192
C          23.73603859967640   -5.94049369360480  -12.58784278697054
C          24.64200053932498   -5.94276802989006  -13.64648277158812
C          24.20076145410630   -5.98900045443248  -15.03549385438431
C          22.89739747379703   -6.04309012926652  -15.40100026945441
S          21.59651188588515   -6.04813954920681  -14.28588682427682
C          25.39638720135404   -5.96873316392072  -15.80740026611102
C          26.51204013315220   -5.90902997571726  -14.96833221484063
C          27.71678214313216   -5.88948545677601  -15.70430759064044
C          27.48943031252489   -5.93171356483961  -17.04418998056991
S          25.81668474893265   -5.99763108280411  -17.47330150419551
C          26.05521089679653   -5.89380468506382  -13.59698037582762
C          26.76279359730735   -5.83365713251772  -12.38993126116259
C          28.11855414555718   -5.73254682090666  -12.21224801796901
C          28.79431812677782   -5.69655197621339  -10.98456029575791
C          28.38678275942134   -5.70773190066941   -9.66030305125951
C          29.34754595964090   -5.73904473740747   -8.57004325194579
C          30.71354906943069   -5.86976648331915   -8.65016442112811
C          31.57126124338273   -5.89009830968362   -7.53071217342774
N          32.33388907339834   -5.91314566187631   -6.67195761183720
C          31.49522615087463   -6.02616356842590   -9.81385154914113
N          32.23580819616742   -6.16961541337727  -10.68177331199025
C          28.61347178055884   -5.65551646386712   -7.31004359684503
C          27.23252286061879   -5.61861288618334   -7.60566784456914
C          27.04059603945481   -5.64025775791245   -9.06936728524674
O          25.94383510936598   -5.58220058245277   -9.60686114095597
C          26.26528185147530   -5.56516319418234   -6.63246219600290
C          26.68074565697181   -5.53250083407663   -5.29782271874522
C          28.06464160567770   -5.55649995099220   -5.01083797774674
C          29.04253132714295   -5.62122240719490   -5.99664645803490
S          28.36201257103267   -5.50096857922760   -3.29909971479962
C          26.64483782063845   -5.44913192972090   -2.99927436481762
C          25.88590156237795   -5.47155074765563   -4.12018464163826
Br         26.01652667087176   -5.36874157444509   -1.23314011975975
H           5.77069361333967    1.16693998125036    7.56994492977638
H           2.94262207131358    0.05287457326220   10.56459921931872
H           3.95325803173560   -2.20987800877474   10.70797037755748
H           7.46249988156526   -0.42906096598654    6.81238526467214
H           5.63645950953390   -3.85164848032348    9.94798059741872
H           9.23961026325523   -6.44601427509981    7.12637370959874
H          11.18436635916526   -7.26016025537598    5.89247139899908
H          12.31003607470170   -7.52106889870157    3.73493042607697
H           8.86507718370837   -3.98855820087701    4.36977237402924
H           8.25049924170814   -3.25646883800452    1.90548668972729
H           9.43525268367109   -2.57052928913038    0.76754909435768
H           9.55283028436180   -2.19577819304728    2.50390536720176
H          13.86862728799747  -10.25222942586877    0.82317230170951
H          15.34813021515317   -9.70739903322385   -0.00545885517573
H          13.92239187719256  -10.19682389071785   -0.95501480608832
H          13.07138664141531   -4.09464578874289   -0.91876122925389
H          14.54033058031278   -4.15114730548930   -2.87439733362980
H          15.33262147234845   -8.31288397239838   -2.26282558018796
H          16.85951342826506   -4.41440393962340   -3.39636539705223
H          18.35446872728865   -4.41860724246788   -5.33126783097525
H          15.02862334461427   -8.05783173002672   -4.69760420398292
H          15.91944505421159   -9.99383089585911   -6.34367388641605
H          16.01436236533456   -9.74749025954180   -8.10395450370877
H          14.71112882133597   -8.97564015573201   -7.16637046382770
H          22.52243369449214   -3.97193192400880   -6.58877575754724
H          22.52621756848249   -3.12322232820733   -8.15157618366552
H          23.43818224071923   -4.63721094157600   -7.97302740949913
H          18.49146197968756   -7.14319997454321  -10.50703595198835
H          19.89484368251990   -7.02413472203025  -12.50096059630792
H          22.86957850190831   -4.79831497071371  -10.35354599075237
H          24.13305431772777   -5.93632036344954  -11.58359839094902
H          22.58318395306288   -6.08347007648542  -16.43201152218327
H          28.70509295938569   -5.84948804456248  -15.28536929833082
H          28.21749609712488   -5.92892606439436  -17.83170553409730
H          26.15860980111658   -5.86336806322191  -11.49737186046196
H          28.75629769954178   -5.68882619251247  -13.08404314724649
H          29.86998311021255   -5.65692309420896  -11.10439320381790
H          25.21713791865667   -5.55466881836961   -6.88595780685919
H          30.08288186410797   -5.64021406079000   -5.72067330196657
H          24.81132583671867   -5.44612210366180   -4.11816595774890
