145
 SCF done       -266.957967145401          0.000445270252
C           5.56421968201558    3.25620799519450   -5.35792338525825
C           4.87300277061948    3.70493771486726   -6.44854292484263
F           5.35896518956621    4.73652383702320   -7.16184506247140
C           3.66407021193211    3.12827531290172   -6.86186234579007
C           3.15441431904584    2.07851537735071   -6.14990604283370
C           3.82563545024236    1.57490795008106   -5.01665277459964
C           5.05326762612123    2.17626158243054   -4.61178776624448
C           5.74082337853017    1.69439251261823   -3.47401970846069
C           5.21751572531376    0.64416787959876   -2.76889353470031
C           3.99737887046957    0.03747242734797   -3.18650709824661
C           3.31016417011204    0.48732447867540   -4.27695141239490
C           3.67538955734616   -1.08541498754361   -2.28432616197403
O           2.69521319120587   -1.79322349048969   -2.29659394470669
C           4.85495181943242   -1.21007745858035   -1.38093381497246
C           5.67613351254275   -0.02710765095010   -1.55704085560570
C           6.54408304196558    0.49696223754847   -0.63704052610571
C           6.74473478305908   -0.05183964239455    0.64604062328354
N           6.90642278418141   -0.41537341213831    1.72268418119748
C           7.28368186087827    1.67975217947176   -0.83707044536927
N           7.93235283016327    2.61750143646073   -0.96918483710433
C           5.04039543052888   -2.34781973796468   -0.66839448666849
C           6.24303944453079   -2.83690290758077   -0.04846442881086
C           7.51078373858147   -2.53772075365633   -0.57505943494504
C           8.62882330138837   -3.05298198338288    0.02783802379095
C           8.51605337105647   -3.86514947581856    1.17162197506594
C           7.26785110062215   -4.17545668652458    1.69370538973889
C           6.14383213589852   -3.67736292102638    1.06881253099521
C           9.84292392143692   -4.27264650458067    1.57550169122779
C          10.77501941004649   -3.72259938759007    0.67681832917035
C          10.07651979200963   -2.88170137950888   -0.36591399490386
C          10.34031802635864   -3.40532184555895   -1.78952844745732
C           9.93839176437214   -4.86459231855175   -1.96738536878831
C          10.50433692198889   -1.40366186275596   -0.26901989395565
C          10.36405768503234   -0.83305570747390    1.13702612757917
C          12.11648524666380   -3.97996341404274    0.81018248954261
C          12.56301126240122   -4.80312847941093    1.85637129023841
C          11.62180957491685   -5.32110514944254    2.75953716928553
C          10.27240327950024   -5.06877356605459    2.62830319064385
C          13.94763992138839   -5.16359249083625    2.02973922190225
C          14.96275691622178   -4.89957173989180    1.18227809033101
C          16.30188956028025   -5.34186846578315    1.36816023973994
C          17.35106664553120   -5.17611619437696    0.48296930243549
C          18.52606443294779   -5.77953937776881    0.93483146789147
C          18.37305832856848   -6.40186653310811    2.18291191706773
S          16.78733490396380   -6.24635415997082    2.79666671919587
C          19.60371622122144   -7.01457307290184    2.53735521427922
C          20.53080970772399   -6.78520665236759    1.50783030765348
C          19.88963677178390   -5.99116353028658    0.47226314952643
C          20.44559581741448   -5.54527091458561   -0.69048336137419
C          21.78539825233050   -5.81951295083891   -1.03769402470299
N          22.87317760579621   -6.03935405499245   -1.32539934423322
C          19.71685239524525   -4.77979504925647   -1.62467710985516
N          19.12339766984589   -4.16108147680604   -2.38624701881553
C          21.76715203885194   -7.38829928707515    1.74682813476184
C          21.78853137815842   -8.06514445497610    2.94899026558509
S          20.25690511416551   -7.95226660947261    3.80549901497936
C          22.85556521801438   -8.82980279548738    3.49338365628747
C          22.92082106443995   -9.42468601502999    4.72184769783605
C          24.10680288306853  -10.16467415850722    4.93471933646662
C          24.50433420272669  -10.85275986785387    6.09998096126795
C          23.68781403278732  -10.91976949354777    7.29487015880529
C          24.11220691289908  -10.87865248962665    8.59229609230671
C          23.05809670010212  -11.03332802574795    9.51841883033065
C          21.82879433688946  -11.20739310876361    8.95286858135317
S          21.96256721998930  -11.16719600910550    7.22731841262735
C          20.51571069028642  -11.40138652500798    9.61727534365919
Cl         23.32055228310864  -11.00543593486222   11.21951172277971
C          25.73871192432340  -11.49358679843851    6.04968408213012
C          26.57765245389142  -11.47359864893541    4.90620091855832
C          26.20959061604218  -10.73314008530898    3.75978311762981
C          24.96731517863717  -10.11335929684969    3.80651563177460
S          24.28228631367961   -9.14570454360090    2.52998050172972
C          27.09350243115730  -10.58615673883331    2.62510070988479
C          26.77718754900060  -10.49945764153516    1.29741209772305
C          27.90684828351687  -10.28516248073859    0.48147167995248
C          29.08945855233084  -10.18919676063620    1.16050123056224
S          28.81315083400360  -10.37860065030001    2.85381003347231
C          30.45023098080804   -9.95007467064215    0.61841413408489
Cl         27.80667616112202  -10.15579983046185   -1.23066280805760
C          27.71961948138965  -12.27765621374339    5.07738999918092
C          27.80663777585761  -12.87164886003763    6.31194905507700
S          26.42269413941172  -12.47492782061860    7.31092497533527
C          28.78583622768010  -13.77119671806710    6.79877279043924
C          30.03162123589378  -14.01988772857131    6.31005547170163
C          30.70464851703518  -15.30027736823403    6.67269341482456
O          30.39551655919458  -16.05230658934410    7.56719257063153
C          31.77228973676543  -15.47134373074806    5.66863058734285
C          32.60212661457228  -16.53696960933339    5.47126500054491
C          33.53661946083813  -16.49624056091020    4.41236810147967
C          33.58840677784831  -15.34707370035974    3.57033167389778
C          34.51525318247031  -15.31828529576538    2.51026330226730
C          35.34522936414506  -16.38696939381022    2.31490687486159
C          35.31194154171710  -17.52418701761380    3.13348663369564
C          34.41688093942182  -17.56976790896106    4.16585084167352
F          36.23123567317973  -16.36045045043553    1.30317554216284
C          32.72288130537926  -14.25305236599023    3.80438988297735
C          31.83315856116431  -14.31175717883750    4.84251899827080
C          30.86321743609398  -13.33949691408451    5.33977967901185
C          30.91043080308163  -11.98853154667156    5.11118229683630
C          30.14418106836210  -11.05716691162809    5.84203930286137
N          29.57333558375949  -10.27001264925304    6.45117414839639
C          31.76144444957174  -11.38085377890350    4.16888947547183
N          32.40538119685127  -10.84802170627780    3.38104536941032
H           6.49026830872765    3.72669543448585   -5.06653161050168
H           3.16355446334311    3.52482840033354   -7.73089539368993
H           2.22484925221334    1.61796983979621   -6.44875609725503
H           6.67101344042193    2.16265719722339   -3.19267099023556
H           2.38330254208331    0.01889654737575   -4.57230280734161
H           4.17583783849714   -3.00326353945892   -0.61891468821355
H           7.59127063042220   -1.94162093994310   -1.47305047430024
H           7.17564196919084   -4.80355538110511    2.56650361146475
H           5.16349023811129   -3.90673923444914    1.45949210265013
H          11.40347989365045   -3.29354812957193   -2.01166922593411
H           9.78685565930776   -2.78624459706403   -2.49889551896116
H          10.49413646885080   -5.50194577444205   -1.28308505482940
H          10.14613665359639   -5.18820185586504   -2.98461064932318
H           8.87626110304531   -4.99857299340990   -1.77391621913582
H           9.89480843146131   -0.81824807781829   -0.96150019277174
H          11.54450392840553   -1.31909604500936   -0.59126994634893
H           9.34141474270305   -0.92493619618394    1.49588352142350
H          10.63148908998028    0.22102690938947    1.13685131476953
H          11.01890393069240   -1.35470064555320    1.83136053238332
H          12.82368106513130   -3.55100766183988    0.11740800290052
H          11.97056911638783   -5.94439628708966    3.57052142180297
H           9.56544448394039   -5.48500564398683    3.32986945044498
H          14.16932646868239   -5.73769235719358    2.92234617954651
H          14.79660373829090   -4.34581219916772    0.26895855307932
H          17.24897369134614   -4.64932544046988   -0.44840495928855
H          22.61681577703290   -7.34941261787207    1.08900911631491
H          22.13766011598063   -9.32153713321519    5.45019457273367
H          25.12981102351982  -10.70597789587515    8.88905403401824
H          20.65474227298238  -11.43849659833287   10.69473180645352
H          20.05087926138950  -12.32948487765425    9.28674528381354
H          19.83797406372642  -10.58269217019390    9.37639838146521
H          25.78609072773208  -10.62085345476635    0.90176872718002
H          30.54734216746006   -8.91540309379701    0.28763058888854
H          30.62819014119523  -10.59287625426212   -0.24271940975566
H          31.20451527057687  -10.14322733954323    1.37773038521629
H          28.42222510517870  -12.47532300153154    4.28941443203156
H          28.48121947845158  -14.40643893632099    7.62470175112677
H          32.54595952221845  -17.40211526496306    6.11471893507523
H          34.57172119737135  -14.45771267501689    1.86213630561879
H          35.99153561218608  -18.33674363467288    2.93125353085031
H          34.37198243341547  -18.43506804423122    4.80984993221277
H          32.77834436202523  -13.39840893290096    3.14872614950090
