147
 SCF done       -245.979669963976          0.000860910692
C           1.67297959485101   -5.56371760413472    5.25620782197900
C           0.62778432100893   -5.88590946513372    6.07602769899243
F           0.08438498157951   -7.11493539835054    6.00431088007560
C           0.09106015894238   -4.98018690790834    7.00128521672458
C           0.63079215060929   -3.72730913001708    7.08958857337536
C           1.71056125525736   -3.34159889345350    6.26892988300891
C           2.24061394323604   -4.27683998569307    5.33269750746395
C           3.31756474241990   -3.91069227124061    4.49252395102410
C           3.84736773698991   -2.65249210233034    4.59137082660208
C           3.32407122855618   -1.72688410714650    5.54008681319242
C           2.27993980602652   -2.05154301297259    6.35705998206011
C           4.09235787388111   -0.46785104827270    5.46959181508039
O           3.90114650374135    0.55509532680128    6.08610282582914
C           5.20422760943738   -0.74236835802060    4.51712794809554
C           4.91444768360525   -1.99350195267473    3.84461577107125
C           5.36938470727476   -2.37076744943718    2.60893400789604
C           6.18641110689607   -1.55544973618002    1.79960637716219
N           6.79650483866594   -0.90698685261505    1.07528166414704
C           5.02062536317775   -3.58065249804660    1.97715961773307
N           4.79370683239108   -4.57172954855311    1.44382018544283
C           6.28321359205929    0.07976555051155    4.48723697876015
C           7.59501657460228   -0.16992470738339    3.95781709228856
C           8.13232179680005   -1.46810281668967    3.90436908863766
C           9.39914574372751   -1.65321867914367    3.41630336855451
C          10.15918844783374   -0.55871521007077    2.96194167611549
C           9.64438407366001    0.72932157542507    3.02425060023946
C           8.37888763535325    0.91480857281170    3.53861274498493
C          11.44130237223764   -1.04751185341516    2.51050007351619
C          11.48045757482535   -2.44220498575830    2.68994555536698
C          10.17815166033956   -2.93933928885964    3.27379560741308
C          10.39178451381594   -3.62093816577586    4.63794836267466
C          11.08199981325877   -2.71484759777737    5.65047039326062
C           9.46944760163701   -3.91365928492572    2.31258531232870
C           9.31492548049728   -3.35353758164525    0.90382224190458
C          12.59511948866712   -3.16476354582169    2.34334077442215
C          13.70846084617243   -2.50314191205565    1.80143492812494
C          13.64910480526563   -1.11156036316959    1.62519284666571
C          12.53408593891381   -0.37980520039549    1.97436958885124
C          14.91944520616971   -3.18249197455152    1.40861993811647
C          15.18910164878684   -4.49409504260030    1.55691643615738
C          16.41442616837660   -5.11798885230520    1.14048328137157
C          16.65584134304170   -6.47309672768271    1.39079998769630
O          15.66389794643577   -7.11386316632605    2.05986099708885
C          15.46129621566602   -8.50843275691842    1.94360317289552
C          17.88414478143642   -7.11126708136441    1.01954874918734
O          18.06432046542742   -8.42052952853917    1.42819566937047
C          19.06738801591714   -8.60714884939300    2.40714390612681
C          18.87728795960087   -6.46503788532665    0.30357571012107
C          18.65004858770751   -5.09339087903116    0.03649846613500
C          17.44581386456588   -4.42374374072835    0.45978804633469
N          17.54217112827816   -3.16993604004620    0.05962440009325
O          18.71531167709072   -3.06330175234433   -0.56896859698895
N          19.39494783418739   -4.20614396539000   -0.59412752170244
C          20.10208914465112   -7.10316795321244   -0.18151384613825
C          21.30000118100813   -6.37953536010497   -0.19357499832505
C          22.43429726335751   -6.96642225529568   -0.69904269843269
C          22.40099826752619   -8.27923647678107   -1.20107132724696
C          21.21607175643552   -9.00092037412880   -1.19336295994175
C          20.07615292876467   -8.40777749904867   -0.68620228078098
C          23.72568432765750   -8.62330326252363   -1.67170272300667
C          24.57103565875251   -7.51676276100529   -1.46722732914718
C          23.81679117996488   -6.37653016030651   -0.82872929741251
C          23.80718822062860   -5.12998211457175   -1.73396640206469
C          23.22488631817750   -5.40436123472226   -3.11523014188140
C          24.41684103505551   -6.00936599637104    0.54146440838667
C          24.44825602909645   -7.18613912461793    1.50912357359372
C          25.89499362045813   -7.56741589890983   -1.81862825214778
C          26.41348684737427   -8.74500265994188   -2.38584932792892
C          25.56310333642813   -9.84915180330247   -2.56393785224865
C          24.22771961542249   -9.79516011853559   -2.22382162981751
C          27.79818546944439   -8.85514761449245   -2.74916251126802
C          28.65016598758957   -7.81234549501477   -2.91924617399411
C          30.02325860262238   -8.00088940057328   -3.18003071527193
C          31.01506492173504   -7.06714216760204   -3.27464209959718
C          32.32097198332734   -7.49128718946546   -3.84732103160853
O          32.68314104137240   -8.62931457599584   -4.04954877493642
C          33.04290347001422   -6.24408969206595   -4.15509706681513
C          34.24066921058265   -6.07960859891295   -4.78813800092976
C          34.72550558458591   -4.77268228062249   -5.01687824935351
C          33.94587092233828   -3.65819363005938   -4.59194004641661
C          34.42691277152789   -2.35632406345692   -4.83248366783077
C          35.62892181023998   -2.19097477528741   -5.46212138110510
C          36.41141628328383   -3.27403684514683   -5.88517818148853
C          35.95828592327241   -4.54441146751601   -5.66174147646908
F          36.09112606914510   -0.94796170304022   -5.69170526853764
C          32.71019197717541   -3.86069834004539   -3.93386275734700
C          32.26870532971169   -5.13645899084207   -3.70636238642348
C          31.06893744270841   -5.64185593506013   -3.03436720250062
C          30.28941356395336   -4.88530459766290   -2.19623196664514
C          29.25241950161918   -5.34124814611931   -1.35887080886623
N          28.41054857733517   -5.60363208111893   -0.62166133930325
C          30.47956531946191   -3.50205449346452   -1.98446968622253
N          30.56505726800242   -2.37840534981774   -1.76444520606670
H           2.05819033316750   -6.28517762486289    4.55262830320092
H          -0.73424263925799   -5.29096653925821    7.62201068210130
H           0.23459377303127   -3.01206423173983    7.79461169720984
H           3.70380409925457   -4.63867967559446    3.79640595641725
H           1.89228907692017   -1.33263140568591    7.06322347460478
H           6.14524643205160    1.03085785843862    4.99327411988292
H           7.55974596001986   -2.30105153996280    4.28723287180290
H          10.22623757386441    1.57220216842848    2.68395660629247
H           7.95922200572919    1.90852025439457    3.59290185743934
H          10.99414164542258   -4.51929597017451    4.48822489999036
H           9.42115404474124   -3.93290097642149    5.03021213375172
H          12.06083898572653   -2.41030166700455    5.28686356451550
H          11.21284890828941   -3.23954903998555    6.59413273600858
H          10.49085309990450   -1.82009844729298    5.83357316470795
H           8.48369667369304   -4.15150939109901    2.71986266797760
H          10.04288403861071   -4.84239626392740    2.27105005908715
H           8.77063320120034   -2.41197049201713    0.91572838796794
H           8.76457583552403   -4.05729347336178    0.28354673637921
H          10.28807181351124   -3.18092002314392    0.44995870671500
H          12.61528396901996   -4.23480409408737    2.48032274554984
H          14.50775247020407   -0.60916257276905    1.20406280131112
H          12.51065981820877    0.68985825985476    1.83031384470118
H          15.67645960602052   -2.55738818032889    0.95589566569896
H          14.48002109667503   -5.16319380251965    2.01999219448698
H          16.06047448484921   -9.06564976665229    2.66686871741070
H          15.68287814267293   -8.86844279303721    0.93817000471050
H          14.40304626925672   -8.66181907678037    2.16150282336073
H          18.80322793117416   -8.09249006328165    3.33784329335393
H          20.04381936151139   -8.25342167006552    2.06606248738953
H          19.11276900079478   -9.68013586666587    2.58390884195376
H          21.32034940235818   -5.37253356111240    0.19030309546807
H          21.17732463002145  -10.00573009293916   -1.58667330401212
H          19.14361917883222   -8.95094208619513   -0.69225538774101
H          24.83206139504627   -4.76682414395645   -1.83343886931042
H          23.21905367201223   -4.35049318452011   -1.24672141787804
H          23.79122160497874   -6.17925791365098   -3.62824778435616
H          23.25531586355996   -4.49990034596920   -3.71798356846107
H          22.18944678630939   -5.72789884721447   -3.03675483625551
H          23.82612324183438   -5.19899849822618    0.97322530319469
H          25.43299239751522   -5.64212999471951    0.38937973279836
H          23.44474961309307   -7.56709518659756    1.68979506948740
H          24.87460376408318   -6.87450810400896    2.45956070312403
H          25.05622710596111   -7.99516012524473    1.11047388917652
H          26.54576430342836   -6.73178239760211   -1.61393380106448
H          25.96951651485590  -10.75374393664514   -2.99359458142003
H          23.58807836626008  -10.65163585271153   -2.37636956276801
H          28.18211035835160   -9.86035853866545   -2.87918794048565
H          28.27359221619039   -6.80396110205963   -2.86617834319552
H          30.34910546737220   -9.01779438164645   -3.37926366706874
H          34.81092155270073   -6.93716667841390   -5.11252506743016
H          33.85280122081885   -1.49909247442558   -4.51709110105095
H          37.35180662004527   -3.08185244311085   -6.37694084873870
H          36.54283158974145   -5.39499578424228   -5.97872543840127
H          32.14112711992459   -2.99492099978075   -3.63584447933848
