100
 SCF done       -184.926867257087          0.000998985625
C           0.31740057750405    2.69878853679596   -0.76905763783937
C          -0.75793081012637    3.52030639472000   -0.57566221183018
F          -2.00036823253921    3.00137073866574   -0.59595193713622
C          -0.62205985709524    4.89682868041542   -0.35218550330944
C           0.63197339806545    5.44129627973263   -0.32660544839058
C           1.77573439737993    4.64069918466896   -0.52032072108861
C           1.61638064142737    3.24285897038862   -0.74724719348344
C           2.74836812363200    2.41983551846353   -0.95288826412573
C           3.99847789607592    2.97711063675668   -0.92700186487299
C           4.15112481234728    4.37409296345702   -0.68847330478312
C           3.07673877745921    5.19225064684190   -0.49457776812367
C           5.58833001987140    4.71266333841206   -0.68616014179546
O           6.09266429716209    5.80546391327876   -0.54563815849120
C           6.29780301691543    3.41559037110859   -0.83339463312266
C           5.32072585775026    2.39774905817273   -1.14553685797324
C           5.57636995445792    1.16723978079617   -1.70051251249668
C           6.82801061905526    0.80003458670299   -2.23323422148863
N           7.80441274172588    0.49975616860032   -2.75731854595919
C           4.59273385914783    0.18013242191624   -1.89943891826720
N           3.83007527123657   -0.66943907075518   -2.02664007038867
C           7.63731799845207    3.35512971823402   -0.59336591458118
C           8.49251597201060    2.22578421675972   -0.39530702018528
C           9.77738079805289    2.29870545236901   -0.91906896888578
C          10.63999416687819    1.21166018465149   -0.90961176814270
C          10.29208601311488    0.00974656016538   -0.31478709307561
C           9.00709144487759   -0.12343820601232    0.27041142439965
C           8.45818848614493   -1.31508604611161    0.77359580647685
Si          7.13277185899150   -0.71715945606457    1.84133044083212
C           6.84881595763130    0.77639418243608    0.85067893361075
C           8.09073481776467    1.01698266082627    0.25495648257845
C          11.26549709176315   -1.07410571947912   -0.34633113981892
C          11.91954757384938   -1.40676116634471   -1.49658976498463
C          12.95090369686432   -2.34968916097528   -1.58816652625755
C          13.46875321211123   -3.01790014522148   -0.39173883282986
C          12.95102556783621   -2.86270107836397    0.84617411747913
S          11.62723584643120   -1.82883554337336    1.19917697445053
C          14.55726444866352   -3.80897389429847   -0.85063981022128
C          14.71478414406136   -3.65424155728643   -2.22987337488337
C          15.78202527351768   -4.44147571791373   -2.71922141324433
C          16.38826020180156   -5.14575761854326   -1.72789685114519
S          15.69836693952357   -4.89348608634391   -0.16223899859373
C          13.69539989321774   -2.75083687982128   -2.71029065949507
C          13.41684033264676   -2.32842680295249   -4.03349532471734
C          14.18341347622818   -2.54824762036626   -5.13158070145195
C          13.83993940810782   -2.16707177662132   -6.46519807075491
C          14.35063387802391   -2.92409031231510   -7.51988644574314
C          13.85649200755868   -2.81513490782106   -8.80486520247233
C          12.79235651917589   -1.96682251556344   -9.12041291670099
C          12.38044284136500   -1.01459988340345   -8.13377309735514
C          11.47980058742930    0.03297780058415   -8.33497876141055
Si         11.89081882520516    1.20292388297324   -7.01088568726476
C          12.51538929186122   -0.09687742966892   -5.90710231004847
C          12.94102602766588   -1.10086587062813   -6.78213593366005
C          12.18943249588629   -2.11621968204949  -10.39725969492032
C          10.90981632844756   -1.87838978486394  -10.82038207282532
C          10.63977556310633   -1.80194609925382  -12.27578075036176
O          11.40518304903116   -2.07962863874634  -13.17526597454669
C           9.26769353679580   -1.26712387686414  -12.39551523464736
C           8.57039840355541   -0.93254418954524  -13.51884577677825
C           7.26269866862392   -0.41106755905882  -13.38948087806640
C           6.70649961555818   -0.24325521815761  -12.08870495030352
C           5.40521441482830    0.28139902833681  -11.96522766855394
C           4.70535905945773    0.61262648610878  -13.09155200515485
C           5.23339446195333    0.45294809334511  -14.37910778590586
C           6.49658659971098   -0.05268796133305  -14.51669819633191
F           3.45939010303945    1.11388676695204  -12.97500662862502
C           7.45096236911686   -0.60663289128385  -10.94167724846460
C           8.71161184795480   -1.11738815168245  -11.09256238559810
C           9.68083906637845   -1.61201413733201  -10.11624128172607
C           9.39621027768389   -1.92253678742395   -8.80714514774503
C          10.21834216629499   -2.71414685229975   -7.98238979039758
N          10.79661315059066   -3.42214753750666   -7.28658105852247
C           8.18398746652336   -1.59465517168866   -8.17139273140363
N           7.22719472168019   -1.31839098051188   -7.59859246717353
H           0.17482196372629    1.64347948363392   -0.94204610128281
H          -1.50719476477150    5.49547278784872   -0.20653924549087
H           0.76267766315787    6.49952674584048   -0.15668447788442
H           2.59820162100196    1.36534848517424   -1.12144347755516
H           3.21632552492237    6.24939348823309   -0.32446394901294
H           8.12314786884024    4.32609192112315   -0.54493980210061
H          10.08734274233258    3.20876002424957   -1.41172298205761
H          11.61561852749216    1.31205448203307   -1.36190636905474
H           9.06778331820714   -2.19880417592035    0.86754493920891
H           6.16721160402388    1.59065344240215    1.04184999345985
H          11.59259616310388   -0.90535921207817   -2.39712062597676
H          13.33432210154242   -3.38361017076107    1.70923765148327
H          16.09764820108993   -4.50371786306802   -3.74417657602652
H          17.21957712824205   -5.81777242432197   -1.81553056689729
H          12.46754421258001   -1.83023695132277   -4.16520481102626
H          15.08340876588773   -3.13867210996301   -5.03464150362006
H          15.08746544957975   -3.68493856906512   -7.30586855988245
H          14.21635776788975   -3.49385331215506   -9.56482324345654
H          11.12801613357076    0.26050620873009   -9.32972318380078
H          13.01390162952483    0.03107489568001   -4.95863728028345
H          12.84837741476159   -2.46865982832387  -11.18674822757420
H           9.00924754744197   -1.06458098407391  -14.49660491445045
H           4.96539152143879    0.41418655715854  -10.98903774964486
H           4.63388540628193    0.73077309979543  -15.23148826549429
H           6.92560615951637   -0.18550708447663  -15.49868740357522
H           7.00436500212242   -0.46658217437419   -9.97029921694659
