104
 SCF done       -198.602368720489          0.000446508808
C           7.45911099165637   10.09657042821839    4.48593918162108
C           6.43960622339217   10.88688612034176    4.93884132773145
F           6.67934127262204   11.78238989708942    5.91469909379786
C           5.13890050910006   10.80327770971870    4.42463197311272
C           4.87650041457151    9.89847389010053    3.43355140570232
C           5.89012132582855    9.05857942230416    2.92912964271372
C           7.20706804289284    9.16133679503672    3.46378217718248
C           8.24429901245977    8.33822799668868    2.96529513397103
C           7.96939471618933    7.44238530129537    1.96876328690162
C           6.64689072215307    7.33076236987309    1.45097731359667
C           5.62935733530903    8.11685124414903    1.90768446862562
C           6.61825314434592    6.27174286204436    0.42301257708478
O           5.68211157873357    5.92569192687771   -0.26374548193526
C           7.97706595778020    5.67081453238777    0.43832663226594
C           8.82995357588639    6.51140186742703    1.24076837576337
C          10.19679107078399    6.61666315856771    1.15207553859768
C          10.97768030474959    5.90413965959234    0.22261852427415
N          11.65418714433964    5.37936933021443   -0.54274914073331
C          10.96861174315997    7.51069343880353    1.91880534630710
N          11.65040528667222    8.19622534351609    2.53892289259483
C           8.18123624023724    4.47831484378075   -0.20109499985767
C           9.19934027204975    3.52525832155700   -0.01863252355960
N           9.38347084194357    2.50351821752921   -0.93340873650771
C          10.40310984953580    1.72059340426923   -0.50894384994738
C          11.19321290726682    0.62577405846215   -0.83691394652727
C          12.09952851755708    0.47116967091472    0.22284555573052
N          11.85071722447193    1.43093974724268    1.18369143321911
C          10.83704355165360    2.22222815632456    0.75186445519760
C          10.09086901745848    3.34664806632777    1.05627980880953
C          13.17123825071149   -0.43674994326837    0.39084336335461
C          13.58601541093328   -1.35531061894036   -0.51963182928067
C          14.72463506002784   -2.19176073887420   -0.36185299465175
C          15.16657246767254   -3.01104663813074   -1.38329212560957
C          16.31937306662871   -3.78780895022195   -1.34777810830795
C          17.22305802107014   -3.73456862734668   -0.19302266225594
C          16.96574593919214   -3.04888248284863    0.94236736813666
S          15.56143995691431   -2.10006743684550    1.18081985281816
C          18.35847885823574   -4.51386361023986   -0.55048157455363
C          18.19032355973066   -5.01862731406129   -1.83784506394443
C          19.29115264229383   -5.80065544400685   -2.25088392677456
C          20.24674300187918   -5.86250436543419   -1.28667934795689
S          19.85225410373787   -4.98609892926511    0.15338823822112
C          16.90475268292862   -4.60845994171569   -2.34564033613847
C          16.42400990533381   -5.02946861364141   -3.59843201125487
C          15.12932998971253   -5.02971810462509   -4.03787146778904
C          14.73332407204762   -5.51612308442627   -5.29701693976782
C          15.59034806636888   -5.90823713791396   -6.42594225388179
N          14.94878163771934   -6.37447427937687   -7.45411387769777
C          13.62496962007310   -6.34269643600524   -7.10618740044193
C          13.45538987838762   -5.77561929379641   -5.77004326806801
C          12.07217989778195   -5.78771292542647   -5.40018063998566
S          11.38102831960758   -5.23903714246682   -4.01010978115952
C          11.41127979247176   -6.41788985250316   -6.52389935601938
C          12.38812725302878   -6.73011008212783   -7.56772969616578
N          11.79002266009479   -7.37169452921116   -8.61131749085876
C          10.53160087258479   -7.45538985903605   -8.29841812750828
C          10.19854192659645   -6.88520954532720   -6.98492156344860
C           8.94609309807943   -6.95440999407735   -6.32488126557309
C           7.72335489487382   -7.10315527004430   -6.90031728331342
C           6.57829949318968   -7.65435380271890   -6.12265535531884
O           6.49901347377325   -7.76317930028221   -4.92170956407381
C           5.60761276674170   -8.10044724990106   -7.14317933943422
C           4.45486871846520   -8.81275284535361   -6.97773735055610
C           3.69680131436934   -9.17177036065709   -8.11477928832198
C           4.15039035194731   -8.78311636346972   -9.40937031761935
C           3.39544029272835   -9.15549499805371  -10.53861464325629
C           2.24734876630988   -9.87817161280148  -10.36977523403291
C           1.78394435068433  -10.26868995698221   -9.10588678845976
C           2.50413103449271   -9.91513491981932   -7.99903210830467
F           1.52564035595794  -10.23626819210804  -11.44703509610281
C           5.34311578187506   -8.03634907891300   -9.55114419955578
C           6.05835280175117   -7.69864889048535   -8.43437721631502
C           7.29778411125684   -6.94515175595490   -8.27553079807351
C           7.83124363528498   -6.06872431308104   -9.18264366036643
C           8.88745916032527   -5.18470991673568   -8.87277935700063
N           9.69649752813960   -4.40414080939259   -8.64284595682016
C           7.32246081744051   -5.88797765150762  -10.48462392619637
N           6.94253358164433   -5.72303595581079  -11.55495907013467
H           8.44991690108322   10.19119734545253    4.90219443162810
H           4.37483602419610   11.45320409348331    4.82070098173556
H           3.88197576767470    9.81574120678219    3.02164083442181
H           9.23037061353823    8.43359095480507    3.39173263309702
H           4.63613793723649    8.02383377648669    1.49467094446763
H           7.39090241747889    4.20268214286555   -0.89410847047065
H           8.90837322247911    2.44579053751291   -1.81830173506478
H          11.14193993126094    0.01303155727223   -1.71319809070338
H          12.39791048569764    1.55812856175411    2.01772944675027
H          10.13403789533391    3.94931491387654    1.94108347432629
H          13.71889713858169   -0.34333250826312    1.32113197729933
H          13.05490613711719   -1.45395290949936   -1.45500473914026
H          14.58054642932464   -2.99416987691703   -2.29058849603705
H          17.63837789908715   -3.04943006208046    1.78538477527283
H          19.38049964600688   -6.29142275237322   -3.20291573441834
H          21.18484465771203   -6.38079222670263   -1.32467332671467
H          17.17494386688744   -5.46587404173372   -4.24492566795374
H          14.32785143130099   -4.72476613578416   -3.38072467425957
H          16.66218827193806   -5.81745900191606   -6.45983168803355
H           9.84280360143159   -7.96673717880985   -8.94799588828170
H           8.97307586826432   -6.98335423465673   -5.23958333508346
H           4.12680102673066   -9.10402278756470   -5.99113996673935
H           3.72082128913915   -8.86991166474415  -11.52674338155672
H           0.87147959061424  -10.83914226364987   -9.03460679511971
H           2.16751613335339  -10.20487844633714   -7.01499013485349
H           5.67043377965336   -7.76192761376526  -10.54175400101925
