106
 SCF done       -216.249776010050          0.000989502765
C          16.33345926870535    2.45087810559190    3.99732159176237
C          16.83692438441316    2.78958336112891    5.22196371115059
F          18.16203380477878    2.66903094458924    5.44504700756499
C          16.02664492635594    3.24581807276169    6.26869239393003
C          14.68150816570241    3.37091797182712    6.05651365687641
C          14.10522933064333    3.02276424595997    4.81824592203184
C          14.94544193315571    2.53719967202591    3.77422823328147
C          14.38530485917260    2.12138436634690    2.54431125662506
C          13.03007709157703    2.19794338482086    2.35943269784166
C          12.20349052105279    2.74138325771544    3.38486673871035
C          12.71573898764650    3.13726817231884    4.58697814052639
C          10.80945013697714    2.79836537852359    2.90613273066986
O           9.84837035510239    3.27552372017616    3.45880785643335
C          10.82029818269159    2.09895226730206    1.58599767017581
C          12.19685538135397    1.87368963848534    1.20560764939423
C          12.67439975736093    1.61893337766567   -0.05721375261583
C          11.87915220189834    1.70403390053077   -1.21796513246997
N          11.27559845563353    1.84020842846554   -2.18512395053273
C          14.01072113750438    1.27679859274305   -0.33147434982851
N          15.06993415914913    0.90970045241388   -0.58446864656184
C           9.62669283435875    1.71433939785848    1.04780988707922
C           9.34829840799433    0.73302701463436    0.07315813773730
S          10.41834194203365   -0.59769336263631   -0.24828718696665
C           9.39734463855611   -1.26391669446836   -1.49321250165601
C           8.24712873990985   -0.49029323680005   -1.59966151803210
C           8.19379330864522    0.61705215268014   -0.71002638114340
C           7.01174153972404    1.36889775958179   -0.89044117438479
C           6.22399315488036    0.83400729563927   -1.86968241256879
C           4.92241925320572    1.36216108281978   -2.30409075449026
O           4.38857661000478    2.33240649486787   -1.82964439220850
O           4.41290866182706    0.62083543092278   -3.29181629855384
C           3.15183863605523    1.03139782315160   -3.79966034522921
S           6.88308444322978   -0.59902516409766   -2.63149927138212
C           9.76151693948849   -2.31803186099765   -2.35281767252900
N           8.97203001275719   -2.65503866241076   -3.37033354853842
C           9.68506192160796   -3.52212928255181   -4.10940115924155
C          11.02832748209655   -3.73546208011594   -3.54139109262499
C          11.80888081382672   -4.66879087481328   -4.37283400226238
O          12.95495901322189   -5.02849047620715   -4.22214182215089
C          10.84578749605578   -5.02747774791164   -5.42988433944113
C           9.57100555171040   -4.30016144413960   -5.23871832711187
N           8.67853996753021   -4.63968921118948   -6.19777059155961
C           9.29903051327552   -5.51913624665690   -6.94812791665613
C          10.65128448873593   -5.81390031286874   -6.51988667284834
C          11.06920373822135   -3.01416705937216   -2.38213508558448
C          12.04584526743686   -2.84702792604394   -1.36141012393524
C          13.38868819710120   -2.87474213597416   -1.51078112401353
C          14.25236341306776   -2.48902552299347   -0.44720005383494
C          13.87698669528781   -1.98822693410311    0.79181866487105
C          14.97066793675218   -1.62569121467206    1.56554402376806
C          16.20226046372734   -1.85016336645455    0.91936089008353
S          15.99230123217330   -2.50011723665245   -0.64277143517272
C          17.24177797086263   -1.44278157556081    1.79644809890248
C          16.65581644735395   -0.97623847574449    2.99362918175792
C          15.21451719036775   -1.07128164940590    2.88368189431598
C          14.28485495011099   -0.69384925012753    3.81153602596065
C          12.90703341254594   -0.70458365695017    3.51898363077271
N          11.79408642063920   -0.66347551520661    3.24167121808760
C          14.65574151422546   -0.22251732110631    5.08692766327264
N          14.96429929081506    0.15977793459761    6.12365183273251
C          17.58729383488498   -0.52959881688993    3.91926771255455
C          18.88926078755008   -0.64499980135047    3.45389298905000
S          18.93671299068740   -1.31607450008568    1.82406712784884
C          20.08764008700062   -0.22202814561201    4.06719504426571
C          20.29741321539830    0.16184740860221    5.35696914636295
C          21.48670599799847    1.01258642788042    5.65903103199897
O          22.44228754009777    1.19257093319359    4.94124728943800
C          21.20458083345846    1.61412272974507    6.97452213784256
C          21.90180504398425    2.57432718782922    7.64908830592500
C          21.41426778410856    3.03292975145685    8.89342695611060
C          20.19873829677622    2.49540990440564    9.40946859763624
C          19.71190378033072    2.96806712431096   10.64393151329790
C          20.41682383139329    3.92296737035428   11.32248565359863
C          21.61632198758407    4.45989873109195   10.83487991387537
C          22.10075268873707    4.01569809933226    9.63587161422530
F          19.95392459366365    4.37388238874185   12.50246038084599
C          19.50085321537086    1.49615931090885    8.69167786276241
C          20.00500578667591    1.05366091742325    7.49951284810514
C          19.52667523099013    0.03082158203199    6.57396444898325
C          18.69388509997568   -1.00389147727157    6.91375950929497
C          18.42634928098838   -2.09756573763557    6.06798451159644
N          18.20038509868466   -3.00764657859041    5.40522097119877
C          18.07917490921741   -1.13241034601050    8.17683698934932
N          17.55879429948688   -1.28091683739068    9.18861447566583
H          16.98892947047190    2.11096733147971    3.21027898248677
H          16.47964830519496    3.48858651884386    7.21654200594785
H          14.03750676420568    3.72617854184946    6.84597582161959
H          15.04564263659999    1.73882961226963    1.78159699076006
H          12.06843450735892    3.53543326440182    5.35350100287814
H           8.75639162198449    2.19633661226444    1.48594438009756
H           6.74269590214104    2.25138792263334   -0.33971387998282
H           3.20846245857112    2.05733926911613   -4.16850993094182
H           2.39412670605469    0.98145827001312   -3.01514886044289
H           2.91332067276139    0.34498639299672   -4.60738423161705
H           8.80295575178556   -5.95199337681597   -7.79939254043014
H          11.31926701298007   -6.50568993753367   -6.99351271359772
H          11.63968307574617   -2.63183170434453   -0.38329371195844
H          13.82991183427902   -3.13535920503743   -2.46208460303859
H          12.85748260845084   -1.87927689810622    1.11045806708477
H          17.33629513404367   -0.09265907666592    4.86742619414883
H          20.94207097974213   -0.09342519522990    3.40960204193631
H          22.81407167510380    2.98085294202872    7.23892926589900
H          18.79592988077653    2.57157712399055   11.05351536920537
H          22.12956578608154    5.21030288398097   11.41499572897123
H          23.02217131833849    4.41495991561499    9.23949292822798
H          18.57744611815681    1.11326694229204    9.09759927309664
