108
 SCF done       -221.383631449036          0.000503301027
C           0.44611849470160    1.02411204957549   -2.01277332857919
C          -0.89136717859095    0.88152469947741   -2.25927896595253
F          -1.54689041026769    1.84326066877748   -2.93060738541713
C          -1.61868486881982   -0.23978162078737   -1.83556591435063
C          -0.97010496995066   -1.22975055710176   -1.15155612052474
C           0.40842689298648   -1.13439322611831   -0.86980292261339
C           1.12970019511355    0.01608118241913   -1.30574524457158
C           2.50934262340677    0.14261718044259   -1.02101683856185
C           3.14345571359832   -0.84934981869552   -0.32290662003612
C           2.42341181731573   -2.00918693966366    0.08675141555636
C           1.08986070468473   -2.15425452090240   -0.16984482340329
C           3.34126949800787   -2.93641770463521    0.76744350635686
O           3.08873217817627   -3.99491351865077    1.29301262223312
C           4.69743251511248   -2.32030922932649    0.63004301487021
C           4.52092399657591   -0.96432321466787    0.14977821364221
C           5.36956181203985    0.09439812317710    0.33955582299191
C           6.59912352797236    0.01199428291855    1.02088451834293
N           7.59438853947756   -0.00194337526330    1.59339894196142
C           5.06628532990502    1.42062983163217   -0.03814234779830
N           4.87018544127439    2.51499934010371   -0.32015114040683
C           5.78478953052295   -3.09382623263828    0.88941515531856
C           7.13867544503438   -2.88353480043111    0.53623100220206
C           7.66938752353581   -2.08474447543494   -0.46663568253008
C           9.05738563299847   -2.13233453617522   -0.49262630693032
C           9.59621773915491   -2.98353707848929    0.49494063694666
S           8.38962559330993   -3.73972303000022    1.42527875939456
C          11.01094005849373   -2.91977361161280    0.42749218966202
C          11.35797208192970   -2.01637190878815   -0.60207256306775
C          10.14766022502831   -1.49996459122207   -1.21604445591173
C          10.05817537610534   -0.60216204826941   -2.23960663742892
C          11.20965032128109   -0.06381455826403   -2.85237867919006
N          12.16196122277686    0.35824670108466   -3.33192420605638
C           8.80693276379353   -0.16590226903331   -2.72426562514204
N           7.77651143532394    0.17538547092021   -3.09305168574224
C          12.72898576076218   -1.85585597675121   -0.73833166472537
C          13.43398063468762   -2.64257649311718    0.16204540479193
S          12.37412393759188   -3.56186313087956    1.22133807664347
C          14.82826800181570   -2.74623752244202    0.37282166534601
N          15.28701089191043   -3.26651414728981    1.50310679168733
C          16.62573448127737   -3.13285594213621    1.45609236578941
C          17.05177145499367   -2.48354316853205    0.20820342590415
C          18.51651187734109   -2.34551991743819    0.17069689656756
O          19.20385744833652   -1.83995677588345   -0.69140326524479
C          18.92916868417893   -2.96297002150929    1.44323998136940
C          17.74536780690896   -3.42480413134429    2.19868337401732
N          18.11831224493866   -4.01106968193935    3.36090633137218
C          19.42831527470974   -3.94919369664548    3.37099872519140
C          20.00016669564360   -3.31531959523526    2.20038181091673
C          15.91043246529469   -2.26970174945989   -0.52490758238631
C          15.73731547332991   -1.79583385040352   -1.85262731006738
C          16.70264713590560   -1.16376359033277   -2.56441801070442
C          16.50364030660624   -0.68564438154195   -3.88489310243756
C          15.35560461251458   -0.73252183791505   -4.66588535167997
C          15.55161316060852   -0.16252356931551   -5.91738697974290
C          16.85720319626717    0.33888841858750   -6.09547082532944
S          17.83515061950688    0.09535080417689   -4.72030517553179
C          16.95022033231367    0.89523255077298   -7.39410552433271
C          15.70487913449216    0.73689690910764   -8.03980717130132
C          14.78560170769704    0.07462040416608   -7.13000836771761
C          13.48145462883211   -0.24734570775858   -7.36807610965543
C          12.86609918602775    0.05937079220250   -8.60070083876225
N          12.38621544472960    0.30401875230315   -9.61286370821728
C          12.68012943584373   -0.92576099174080   -6.42630721957160
N          12.02904825697193   -1.50307901848995   -5.67901394262540
C          15.69249134274358    1.25881074859377   -9.32594363304927
C          16.91063849580868    1.82754047149016   -9.67497887608179
S          18.09524420810303    1.67392779639627   -8.37930430271426
C          17.31628431146737    2.42302386854145  -10.88687615806191
C          16.57088673344745    2.86755992960993  -11.93773353927393
C          17.25404970607685    3.05002691966708  -13.25211868355652
O          18.44810722490159    3.05986508292626  -13.44486207006444
C          16.16907102375504    3.15230058728354  -14.24305467027667
C          16.25147648323762    3.20786376600400  -15.60462140840040
C          15.06202598837552    3.26478396153164  -16.36442721602771
C          13.80380111426413    3.25216326368151  -15.69404698379259
C          12.62206583010751    3.29518426128403  -16.45893206158472
C          12.70680735169870    3.35348659177060  -17.82235410511657
C          13.93395911818370    3.37115614596096  -18.49956143993000
C          15.09095950703119    3.32694592003285  -17.77282595658084
F          11.57965338116331    3.39565317366452  -18.55477752352778
C          13.74894303809093    3.20328345874062  -14.28115127600763
C          14.91519653615244    3.16511811385049  -13.56654623938076
C          15.16430413939528    3.14776243288089  -12.12615600772492
C          14.27639700207274    3.58129345320450  -11.17558022569192
C          14.61838599793777    3.79097205749749   -9.82615889219226
N          14.87303245975202    3.99417236819092   -8.72503528761692
C          12.94841437336524    3.96406571298524  -11.45961655999590
N          11.86291809644131    4.28875961089623  -11.63960781348392
H           0.97325292142444    1.90260069482147   -2.35052319459520
H          -2.67228016027661   -0.29659617477128   -2.05862609585110
H          -1.50879330457044   -2.10288457961517   -0.81553749391784
H           3.03280449199084    1.01770626330072   -1.37199384004662
H           0.56131068499581   -3.03654998551919    0.15859108465307
H           5.56447008978461   -4.02645235300631    1.40116373311617
H           7.06261528554944   -1.52869770320053   -1.15813840022818
H          13.18742998669932   -1.16094556698490   -1.41566656911865
H          19.98391629708817   -4.34762544343394    4.20203867523486
H          21.04660736614659   -3.17362622317090    2.01570172632699
H          14.78136944451085   -1.98455164733844   -2.31570431790030
H          17.67568764477211   -0.99980033493925   -2.12077965621837
H          14.42219658840247   -1.14713682749832   -4.33370725431232
H          14.86125061813157    1.19051213855375  -10.00352229494077
H          18.38945709873635    2.47824292132044  -11.04801092812264
H          17.21267368981825    3.20705513419069  -16.09639327342798
H          11.65990395456545    3.28728991710633  -15.97117676573759
H          13.93848012179559    3.41869400621204  -19.57696978829710
H          16.04840401258536    3.33877995582795  -18.27159006036197
H          12.78397261029910    3.18518571438421  -13.79988536093880
