128
 SCF done       -252.961296259140          0.000588646101
C           2.76523982262120    2.28276253399079   -7.93571241176281
C           1.64710481281111    3.03086536701344   -8.17824786832553
F           1.61514230939216    3.84589284822837   -9.24878889959505
C           0.51818148059532    2.98629251927649   -7.34903363119864
C           0.53303859291486    2.16523043836515   -6.25598996412052
C           1.66013496587035    1.37238671869168   -5.95782863355734
C           2.79752297337145    1.43021639775445   -6.81492535748004
C           3.93689050748316    0.63762130100474   -6.54162598672313
C           3.93866848826912   -0.18094192767439   -5.44461263915566
C           2.80483220244910   -0.22177245465219   -4.58315646368386
C           1.68914662394983    0.52557962361160   -4.82709126615055
C           3.07831725578814   -1.14360347586317   -3.46348068222492
O           2.33257056528840   -1.46297732803287   -2.56679188820650
C           4.50114354502200   -1.55846040516261   -3.63494999404364
C           4.94093943239466   -1.11463026226635   -4.93775370144956
C           5.98998002671963   -1.61749910139355   -5.66224212911773
C           6.79510414899599   -2.69273798255084   -5.24171753319691
N           7.47267121224737   -3.57727503246523   -4.96381549476047
C           6.36982559291735   -1.14518440911616   -6.93378987596847
N           6.75174440911474   -0.77829572358968   -7.95284383514057
C           5.13552456355463   -2.15815767000217   -2.59286689893557
C           6.52402775290843   -2.34640511059933   -2.32696354518324
C           7.55791971233366   -1.51787070467029   -2.78260713392568
O           7.20350410658807   -0.44288567473998   -3.54828350470983
C           7.65976544077144    0.83964655302536   -3.14176131020527
C           8.92315135434154   -1.78706402567933   -2.50040776388577
O           9.88293859813465   -1.00093930827078   -3.09852772215121
C          10.02325193334326   -1.20052327170883   -4.49955828554734
C           9.32034200520701   -2.82199519955973   -1.65226954096316
C           8.27754494660681   -3.62055092102469   -1.11390571099808
C           6.90583720285394   -3.39651316609877   -1.45403082198992
N           6.09566580611889   -4.27812972036770   -0.87416958168331
S           6.97618090895688   -5.28774659140675    0.01478469922546
N           8.42211934859377   -4.65718344751860   -0.29398101014757
C          10.68508538890816   -3.14116035062969   -1.34062262280124
C          11.82700068051449   -2.47334446548731   -1.69627028072249
C          13.01626940485784   -3.09038147513567   -1.25329895060412
C          14.34284057088343   -2.64656877015816   -1.44220100234555
C          14.67600700095676   -1.49729112048828   -2.25648882249385
C          15.68753607678363   -0.59853558142481   -2.06850214163673
C          15.78050934324248    0.34771505935869   -3.11103203410677
C          14.86235227126661    0.18699232025424   -4.10731196504634
S          13.83941060079009   -1.16334697774266   -3.75073365751806
C          14.67321837701017    0.99083681441682   -5.34158086686563
Cl         16.97010270608195    1.59371019665538   -3.11384936999596
C          15.34053318088565   -3.40087824034961   -0.83304048298075
C          15.07546885808422   -4.57219862556186   -0.07767349215676
C          13.74829056541717   -5.01847692069261    0.10701386860410
C          12.75060723749867   -4.26250725975816   -0.50053097281561
S          11.03886097767320   -4.57132478073810   -0.39657967278039
C          13.42041468282683   -6.18685619866856    0.89584400968339
C          12.42375232643093   -7.09534088519443    0.67398406420017
C          12.34380194208587   -8.07529975673832    1.68506531115187
C          13.25593587954647   -7.92911261699875    2.68987732568187
S          14.25509581659898   -6.55054426343113    2.38350851408026
C          13.44443864569671   -8.76164215567214    3.90480837475176
Cl         11.18294201441121   -9.34614465025559    1.64159087630473
C          16.26663637311326   -5.19590903682634    0.35047480088082
C          17.40937451143279   -4.54426464080370   -0.03180283574290
S          17.05090034566794   -3.09431484022866   -0.93868276404187
C          18.75933115045579   -4.95903526467740    0.21458520755498
C          19.85142640424246   -4.16735036222185   -0.16500255826382
O          19.51689699107915   -2.98333780020906   -0.72276941701305
C          20.37231090279025   -2.25919311359865   -1.58322806504569
C          21.19289026789348   -4.57077332618646    0.08357103587593
O          22.16196370315580   -3.66508496958378   -0.22046882111600
C          23.21409686191365   -3.43688583340109    0.70732261603353
C          21.49862305896275   -5.81667559564986    0.63954958867227
C          20.40537568276420   -6.62311862273802    1.04650896484006
C          19.04848882730643   -6.19499144245045    0.85028368558216
N          18.18041355336975   -7.10614630310897    1.28107876045712
S          18.98069031744556   -8.37408264861507    1.85968300484935
N          20.47524800301116   -7.83432736477825    1.59156659225261
C          22.84501389509952   -6.30909847750340    0.66918929557738
C          23.41424878982784   -7.23107323975345    1.48557180626864
C          24.66395242896752   -7.91719430373166    1.05190448731667
O          25.39468994692363   -7.58370953002774    0.14689504704028
C          24.78096118168371   -9.09557233070737    1.93164142523602
C          25.67869112211548  -10.12245538265250    1.87939005381996
C          25.57849727315484  -11.17420202612277    2.81778775264529
C          24.54129767680229  -11.14213768199531    3.79549463728348
C          24.44295473317896  -12.19904987340826    4.72131023840320
C          25.34260873928325  -13.22691087496926    4.66527339120448
C          26.37071817043844  -13.27511788830509    3.71401650965923
C          26.47977115012155  -12.25838587501605    2.80651623048825
F          25.24999667248444  -14.23686798098695    5.54940724657814
C          23.63112373437396  -10.06015125812324    3.83304559731497
C          23.75245973485964   -9.04991618989835    2.91778082170676
C          22.99232616059952   -7.81946291578660    2.73755793318950
C          22.19198026693462   -7.22268841226183    3.67575677422855
C          21.72185338919854   -5.90472232750737    3.52741891379633
N          21.38412691867407   -4.81083152429759    3.43360212381774
C          21.81645175686765   -7.82157006112823    4.89312300222231
N          21.46134797744429   -8.27732772361576    5.88518467483241
H           3.61478606978542    2.33989258385353   -8.59823215793762
H          -0.33555134648290    3.59923060723842   -7.59082974718149
H          -0.32448771855383    2.11351021696335   -5.60211127559938
H           4.78507292939402    0.70516602139772   -7.20443474132695
H           0.83814613038148    0.47271557568911   -4.16465825224800
H           4.47976306410922   -2.52357966571468   -1.80751130958454
H           7.33193569440822    1.52312763074700   -3.92327107059066
H           8.74364596661189    0.88691699939264   -3.03683897498070
H           7.19105967432771    1.11786867115720   -2.19291701404699
H          10.19408869657044   -2.25615964134709   -4.72294393639040
H          10.89454101016901   -0.61820218038614   -4.79323208535275
H           9.14498680571500   -0.85622109716042   -5.05135274983549
H          11.80682592410616   -1.54812426491806   -2.23681648857011
H          16.32587214676768   -0.58212497178952   -1.20551128093807
H          15.46725092494472    1.72888383677503   -5.42294566598525
H          13.71411947683490    1.50847921969300   -5.32109659849972
H          14.68992313433247    0.35129818933111   -6.22306670514851
H          11.78803372143881   -7.09545991026406   -0.19111570292196
H          13.12727473337313   -8.21804872400121    4.79513204438674
H          14.49308265927653   -9.02612345053294    4.02977017127328
H          12.85264230328798   -9.67003443353660    3.82235756616731
H          16.30280357625431   -6.11153755191651    0.90787768698093
H          19.70653933441930   -1.62167854609706   -2.16622019756978
H          20.92856605503175   -2.91867121192275   -2.25018412731143
H          21.07021252456406   -1.63738777380651   -1.02030317113987
H          24.15443832938002   -3.85020287698777    0.33869379785414
H          22.98055131185598   -3.85681091825459    1.68623000160942
H          23.31600947543528   -2.35304847915423    0.79626652618957
H          23.47290045512332   -5.98863055560242   -0.15698117378916
H          26.45573653561507  -10.13500625405400    1.12973661637096
H          23.66598582078717  -12.19355645384526    5.46970785815202
H          27.05155524870564  -14.11146221856954    3.71846283977011
H          27.26321200241534  -12.27347026417759    2.06380293289280
H          22.85169145904856  -10.06091174736821    4.57865900439227
