132
 SCF done       -246.394176932594          0.000572216622
C           7.06973090744918    4.30907615636859   -8.45159751787574
C           6.14254283918760    4.51343854290936   -9.43503567487049
F           6.55260700822258    4.84111018648192  -10.67452887066792
C           4.76523327335423    4.39401876939769   -9.20592328858437
C           4.32971627220546    4.06129085965495   -7.95337053053546
C           5.24199315484581    3.83851157740354   -6.90179415113652
C           6.63875010548770    3.96666778802738   -7.15527068585072
C           7.57331844183121    3.75638421080484   -6.11445097778710
C           7.12196570391448    3.42470232146430   -4.86661853018671
C           5.72547048161361    3.28187310566930   -4.62174149968878
C           4.80206882700990    3.48734776464711   -5.60535120222391
C           5.51537955207709    2.88307959187905   -3.21490921589630
O           4.46462980132063    2.72229631402997   -2.63532586669112
C           6.87862396530161    2.65620958506187   -2.66973789478980
C           7.83427623140812    3.18751997000442   -3.61433720135716
C           9.08698192382891    3.66168259838037   -3.31721469134619
C           9.61874039913514    3.67750415124875   -2.01192768613499
N          10.06198164773588    3.75233112866839   -0.95511074645894
C           9.93749438190053    4.27138977672127   -4.25950699457023
N          10.67274662065045    4.76033159600579   -4.99352153869176
C           7.04229726029354    1.97247896867226   -1.50032447758738
C           8.18320630548872    1.28891799648791   -1.03313089466728
C           8.44944516068999    0.94223559820772    0.28778849811611
C           9.65031984521644    0.27227440251930    0.43032522110907
C          10.29092500800169    0.04683362269542   -0.79310517503314
S           9.43151440564757    0.69238804272346   -2.12154312735384
C          11.50126794505142   -0.63875247223344   -0.56012007992923
C          11.65624948208135   -0.83381136489519    0.81279180721764
C          10.48147019551061   -0.26440890770795    1.57178459222613
C           9.74216952910011   -1.35128669570677    2.35618063711349
C          10.92294467318262    0.87319002216503    2.49787657004608
C          12.84495667757681   -1.47679361306091    1.13178592842288
C          13.59465703815694   -1.77965568783927    0.00839484050022
S          12.81592085782687   -1.26153425113681   -1.47158623395304
C          14.86478760140504   -2.41286558135595   -0.03888738693888
C          15.58282588834436   -2.76682533898224   -1.14555368353912
C          16.83170630919804   -3.36022116521064   -0.84939393201489
C          17.79609920217042   -3.84969907721031   -1.75315773763096
C          17.57792500489576   -3.88326172420908   -3.18501779401163
C          18.48327524717775   -3.64516677646928   -4.17898429645687
C          17.94394470029662   -3.84292679607993   -5.46842721721691
C          16.63911645849366   -4.24103597774796   -5.48180761079956
S          16.04444486297538   -4.36691826723114   -3.86130610784181
C          15.76959067656695   -4.54898443365461   -6.64483952714403
Cl         18.87308248740213   -3.59900143271706   -6.89748356523795
C          18.97380782055236   -4.33577187240849   -1.19644330084397
C          19.21515375980849   -4.39663719042434    0.19909394565153
C          18.23436228940652   -3.94147145991632    1.10421085751715
C          17.07278330455416   -3.41844166158708    0.54604006776813
S          15.71642195984649   -2.79442873706228    1.44456140419257
C          18.39993984680370   -4.01974198852140    2.54149011012935
C          18.00890150550966   -3.10675616348693    3.47878509986309
C          18.27082834610194   -3.53205881104676    4.79888991663065
C          18.84761356454611   -4.76487787234786    4.89287737020740
S          19.08940212581023   -5.42478400496183    3.31116977909451
C          19.24843197225965   -5.51640541771863    6.10859361599740
Cl         17.88556278564751   -2.56054996032790    6.16755822236616
C          20.49331660981897   -4.92872862321678    0.48979289100967
C          21.20382250782544   -5.29221366253997   -0.61884031081477
S          20.31611433550682   -4.98217051829874   -2.09783995779658
C          22.51346443314918   -5.83717205228795   -0.68268243101988
C          23.22484086091885   -6.16995122283770   -1.82274843611247
C          24.48842221055409   -6.66316387499552   -1.52890768164953
C          24.74377632967421   -6.71109272929012   -0.15766711614843
S          23.42134453788224   -6.14572454257528    0.78144594846746
C          26.04302764874026   -7.22000013683485    0.05220641417581
C          26.62771694799067   -7.49430838406343   -1.19276192934326
C          25.67421008212433   -7.16563606179065   -2.31631200416737
C          26.23102517693553   -6.07904184059861   -3.23991752330314
C          25.31941654321092   -8.42749267766430   -3.10918161063547
C          27.88969491877149   -8.03926000461133   -1.08389377005095
C          28.29647160460341   -8.19018536749732    0.24233803558201
S          27.07089034614992   -7.59999891623483    1.35988287669222
C          29.50472837982213   -8.67174135184343    0.76943234425041
C          30.50129379844919   -9.39275734299832    0.16808866499645
C          31.85208921121172   -9.38228797634526    0.78800339826012
O          32.14144263092834   -8.96476969686723    1.88728623133692
C          32.75783223273540   -9.93307091084766   -0.23887146141171
C          34.11778630134626  -10.04016872763620   -0.21798122467665
C          34.78422705631842  -10.57823842821583   -1.34217852311233
C          34.02168006774306  -10.99247405690541   -2.47246159558697
C          34.69224010821777  -11.51962312805184   -3.59307143597015
C          36.05513179162172  -11.62491461602041   -3.57153794557908
C          36.82251410964776  -11.22524380928449   -2.46936853846832
C          36.18736584160555  -10.71046494747637   -1.37341435155165
F          36.69757982919721  -12.12832919821540   -4.64193508180324
C          32.61137971455418  -10.87766919882737   -2.46174503388757
C          31.98870637360135  -10.36104475855849   -1.35859030333742
C          30.57298830879614  -10.15719926496430   -1.05161208806720
C          29.53731531127201  -10.80049337337703   -1.68530747641656
C          28.21211611568909  -10.81860899315864   -1.21125426478722
N          27.12280656232761  -10.89237140834394   -0.85490099124882
C          29.68918162144430  -11.58344917717947   -2.84619673277897
N          29.74560370155433  -12.20446034386360   -3.81087650882659
H           8.12253051607186    4.41351145139804   -8.66266962350690
H           4.08044191194367    4.56677948558888  -10.02093707756617
H           3.27342958543501    3.96339644249577   -7.75254023297758
H           8.62533846476253    3.85198485762145   -6.33269554405694
H           3.74741887301800    3.38347026168265   -5.39864500485091
H           6.15262536685353    1.88606937918610   -0.88333048792524
H           7.79347700697734    1.22287656263013    1.09191358864159
H           9.43594154381390   -2.15664454115180    1.69224128046265
H           8.85738533429586   -0.93329478768604    2.82939705178705
H          10.39135520610980   -1.76133224461011    3.12561471143028
H          11.41525626024382    1.65504321541246    1.92468368260777
H          11.61418015982350    0.49713221524589    3.24782654153725
H          10.05857289892750    1.30230288365731    2.99780026174506
H          13.17681151590379   -1.72402636832511    2.12423465136755
H          15.22121399655676   -2.59051468869274   -2.14194731375967
H          19.48812412819482   -3.30483035222340   -4.01267647548263
H          16.29689994763716   -4.31823491716431   -7.56718166088204
H          14.85102233305692   -3.96518509583029   -6.60351970314032
H          15.49632802710562   -5.60428304367413   -6.65062391381955
H          17.58432104642822   -2.14765508516240    3.24833308606395
H          19.05543497741678   -4.91248238001697    6.99170740335790
H          20.30797207297834   -5.76705979440589    6.07379478153316
H          18.68664758028392   -6.44690727298850    6.18756283953147
H          20.89129306576688   -5.03285145056516    1.48248680885338
H          22.81521537533183   -6.04566297364970   -2.80911355658860
H          26.47610570968266   -5.18510756177852   -2.67054540810472
H          25.49388874437737   -5.82034919123243   -3.99570813093691
H          27.13055264734287   -6.43529978864120   -3.73552038887223
H          24.98127626912119   -9.21247589917929   -2.43721529382681
H          26.19308749599670   -8.78872252854053   -3.64568909361535
H          24.53096769675705   -8.21003786586357   -3.82516550329080
H          28.52488110607551   -8.28252502948176   -1.91648898022969
H          29.72671256512967   -8.37503761553264    1.79068087036207
H          34.68002228181808   -9.71831766284431    0.64572272009646
H          34.13313969430108  -11.84124880688917   -4.45787191866842
H          37.89491658744302  -11.33214062342365   -2.50958097271003
H          36.75685195142438  -10.39561330935860   -0.51192278978256
H          32.06087224880195  -11.19416449514114   -3.33354324989385
