106
 SCF done       -201.502974773640          0.000446706649
C          13.11555629092003    4.16490338760563   10.33658137219144
C          13.02890804851555    5.07738554566998   11.35078087151476
F          13.70837561187159    4.86409557991343   12.49358407142477
C          12.25399202056943    6.24043847600692   11.25132893757359
C          11.55744714960639    6.47381814008144   10.09808272240460
C          11.60994306112403    5.56608150471312    9.02090660054748
C          12.40240280726678    4.38789353455481    9.14289108678703
C          12.45928101887022    3.45449659756888    8.08125590860012
C          11.74791983513466    3.69584723056045    6.93815702980730
C          10.97042951027391    4.88357380211501    6.81494971510868
C          10.89336244738536    5.79774074735260    7.82483548088029
C          10.32955698149124    4.91061157213447    5.48451488798941
O           9.56756050771172    5.74218405204477    5.04319297254964
C          10.86396366330704    3.72327965882761    4.77110246951228
C          11.56668809124246    2.90115911873162    5.72604040117644
C          11.76626228236908    1.54512038825272    5.63656510190920
C          11.25709821714566    0.75472612987436    4.58681981617020
N          10.80744208355076    0.07152185449690    3.78033093519972
C          12.41249654600872    0.77899119504460    6.62437582932856
N          12.96078340666509    0.11175705030212    7.38176234845824
C          10.69273054573386    3.61128548788882    3.42060650196523
C          11.41191031197543    2.83753040258523    2.48964217610521
C          10.97038687614779    2.47967891311657    1.22512511645672
C          11.89222869401610    1.70598613581215    0.53867172709403
C          13.09563456612710    1.49920537014684    1.23912480063504
S          13.05425857625069    2.26719635881657    2.78375153701380
C          13.98462236996811    0.70360115172083    0.52206401055692
C          13.44497582373686    0.28788297170649   -0.71953833633159
S          11.85107253535631    0.91343410843060   -1.01730678169576
C          14.36773160243362   -0.53968351997957   -1.32997699822379
C          15.47344511342532   -0.61908327026348   -0.46209095075944
N          15.22321807690279    0.16349160389961    0.64912884244213
C          16.07906930128011    0.31930708983506    1.79240653168773
C          16.67139616079076   -1.34814955897220   -0.61691819241735
C          16.86337488804118   -2.39354093644708   -1.48581859333021
C          18.05750623324476   -3.13624098219920   -1.67612182688053
C          17.93761791487797   -4.19736008182867   -2.52481864560620
C          16.63762065656338   -4.36314371386271   -3.04607008373718
S          15.58617337045390   -3.09259129579840   -2.46143946633791
C          16.10438689642324   -5.34598626538254   -3.85843920551000
C          16.70016283469009   -6.45995871986756   -4.48567868797851
C          15.81664422674752   -7.23944740751190   -5.17306984578056
C          14.47040556556429   -6.79600771180655   -5.11475865089786
S          14.38516231235990   -5.31545500562847   -4.18557134725216
C          13.36624492795558   -7.41595564754039   -5.64848613613950
C          12.02929429585686   -7.01584269097351   -5.49721330052527
C          10.90332451488834   -7.67658671727891   -5.98333910723871
C           9.71866241413309   -7.05879561074729   -5.60709657516362
C           9.91105229110924   -5.90444379939010   -4.83053150728135
S          11.58573111485379   -5.58502194670789   -4.57549348607379
C           8.70759467172403   -5.32519677326561   -4.43646385129059
C           7.58183593192363   -6.04485969581400   -4.90963887631570
S           8.02671914504085   -7.42924787415289   -5.87173964165928
C           6.45144754544100   -5.42445351262358   -4.41521291682074
C           6.89650420609978   -4.32058291036135   -3.65928144401892
N           8.27677491212604   -4.27440007140735   -3.71017011603883
C           9.11984436636504   -3.34413690483750   -3.01047981082880
C           6.16060180833555   -3.30608184357536   -3.01954081255014
C           4.85360932293469   -3.28831492193955   -2.61750387880996
C           4.19625248989594   -1.97764931782202   -2.38764802324767
O           4.73671572923069   -0.89266983931691   -2.35952270482909
C           2.75836608601591   -2.27809735440474   -2.25154664426387
C           1.70939238003323   -1.41722791903928   -2.11077548543638
C           0.39892493013258   -1.93727224060904   -2.01323774447571
C           0.20252217188168   -3.34750621465851   -2.07086278352558
C          -1.10624771527216   -3.85879433998463   -1.97710389557854
C          -2.15550406178959   -2.99499490895881   -1.82896731385594
C          -1.98295936773427   -1.60595217810041   -1.76774917987587
C          -0.71900080773130   -1.09258217050475   -1.85963139683536
F          -3.40735730796496   -3.48257061363306   -1.73734405652457
C           1.31049707587730   -4.21667274570491   -2.21101278542377
C           2.57034814817367   -3.68990876800144   -2.29250223035465
C           3.88296207647023   -4.32772010750098   -2.38509241466281
C           4.15066543192180   -5.63120828173398   -2.04282626190831
C           5.45287508823238   -6.12263174678582   -1.83290053104585
N           6.49469259158013   -6.54383577054992   -1.59576498408392
C           3.15911375060125   -6.58984259231771   -1.76054213829544
N           2.38988205543729   -7.41470293212276   -1.54365903361070
H          13.71854888458790    3.27750523416814   10.44982561585042
H          12.22328842901597    6.92424196791748   12.08470885180946
H          10.95287560362839    7.36269971847301    9.99765016383714
H          13.06966267358376    2.57274005568654    8.19712831243364
H          10.28902853867674    6.68584486095836    7.71589388590566
H           9.93285684852036    4.26170445596791    2.99709527513545
H           9.99453334251641    2.73774130856628    0.85699599109649
H          14.27877361791427   -0.99568036110936   -2.29301294634440
H          16.31710271546492   -0.65207250805273    2.23081769188072
H          15.56195817171024    0.92288641365763    2.53620763270517
H          17.00854817502489    0.82298897317566    1.51585311105591
H          17.50256589958160   -1.09072663824323    0.02502615342164
H          18.96819614877477   -2.86619955761828   -1.17055151922250
H          18.73813085944464   -4.87283762523042   -2.76896215761650
H          17.75485611569507   -6.65763562187854   -4.41294627380200
H          16.08561420840348   -8.13270276240618   -5.70908323985585
H          13.53105061860186   -8.32329622032698   -6.21456113406811
H          10.96398786700353   -8.57316480953288   -6.57199613649067
H           5.42956618172224   -5.68916115791422   -4.59861196189145
H           8.98520699710834   -2.33137682823398   -3.39729767361193
H          10.15839916246809   -3.63773210138377   -3.15180653551573
H           8.89160906167776   -3.34955267699552   -1.94343901717714
H           6.67118372441100   -2.35639471032580   -2.88925888752847
H           1.87644138743448   -0.35125623762328   -2.07004155230420
H          -1.27640547772312   -4.92342629510680   -2.01582517632521
H          -2.84853093594416   -0.97351694518724   -1.65002950256427
H          -0.56008445617952   -0.02555945253037   -1.81500537221178
H           1.13204838975250   -5.27942620569028   -2.25577471745342
