124
 SCF done       -240.639893662159          0.000983001453
C           6.87429513307013   -9.63224134350017   -6.85036713446530
C           6.17682182449411  -10.03371822575945   -7.95538214381428
F           6.51006087136070  -11.18567012634731   -8.56652024257120
C           5.11615997414734   -9.28763972307848   -8.48665665644735
C           4.76380746430349   -8.11428878081238   -7.87966905558203
C           5.44810024150005   -7.65300911526347   -6.73647799165578
C           6.52234561370792   -8.42809156354716   -6.21020634789578
C           7.21381851322102   -7.99423973515173   -5.05502610899673
C           6.84149300458740   -6.82443047395816   -4.45142033713323
C           5.77923965135674   -6.04350264326097   -4.99202815505482
C           5.09177701627403   -6.44150271978375   -6.10181827186836
C           5.60487575963290   -4.82456655485592   -4.17588967319072
O           4.77406398386736   -3.95417367499240   -4.30670763220036
C           6.71266005135196   -4.85892426645943   -3.18508896674457
C           7.32088071121573   -6.16867684555841   -3.23810756082818
C           7.97731471414822   -6.79689922998379   -2.21020518750094
C           8.12187868173667   -6.23045133463778   -0.92715185719865
N           8.21111371807047   -5.82270404552309    0.14238226701104
C           8.49421260131708   -8.10391331929295   -2.29074682623026
N           8.95825783702113   -9.15418888581641   -2.30942628624530
C           7.03449915186460   -3.73123459070546   -2.48874031053849
C           8.24352733102386   -3.39687202188362   -1.84351975268006
C           8.41149860352576   -2.40876485291432   -0.88775949307158
C           9.72544381694388   -2.30868486509860   -0.44846640429360
C          10.60407092599446   -3.18834596414879   -1.10243143610074
S           9.77715295864139   -4.15947371179164   -2.25883734730009
C          11.90980666443999   -3.06606765766632   -0.62883337701241
C          12.02219711368625   -2.10628227349241    0.39847816657459
S          10.51319556979425   -1.32217311536893    0.76039202406851
C          13.34412962010770   -2.11136429069262    0.83046655866518
C          14.01101808351966   -3.05737846302118    0.05050516744227
N          13.12827378613514   -3.63107667406496   -0.83413252579197
C          13.36756858079183   -4.70374356631572   -1.75881646838276
C          15.39124568912082   -3.42184989621310    0.16124345875439
C          16.23902083413505   -3.94650425027148   -0.76855581099146
C          17.53833934781939   -4.21739475327429   -0.27068767171653
C          18.63632398219633   -4.75212542422815   -0.97319803937298
C          18.60191487085795   -5.01229658455620   -2.39847488513751
C          19.16406133209881   -6.05480555814262   -3.07718775686009
C          18.99495838207867   -5.95451597779302   -4.47550904704612
C          18.31850907169891   -4.84356821981939   -4.88615184478926
S          17.86312680136261   -3.89113281754100   -3.51376032993712
C          17.97767496492789   -4.41555562846986   -6.26616072813080
Cl         19.59943423481409   -7.14784265627857   -5.55975494181172
C          19.77983347636530   -5.01052960036307   -0.22438125242799
C          19.88965289977329   -4.71969108050422    1.15791373475965
C          18.81617475654094   -4.11514957104565    1.84260248262081
C          17.65367665118169   -3.90690267233849    1.10552854372010
S          16.17427371878663   -3.22032420605386    1.71655842449526
C          18.91217335321166   -3.70260492161537    3.22731713836646
C          17.94486076725838   -3.74125791709300    4.19091572470411
C          18.37118050587706   -3.18508319467310    5.41612327523149
C          19.64945892971820   -2.70729230584917    5.40751728341810
S          20.36118409373023   -2.95576003277352    3.85027555584234
C          20.40683680866360   -2.05086292673757    6.50247467150669
Cl         17.34872806332377   -3.12204785135186    6.80015230929555
C          21.13985503095994   -5.12718806450286    1.68286382983514
C          21.97771940836490   -5.66640018853185    0.75110912832541
S          21.25518651875856   -5.70033460885577   -0.84370181118403
C          23.27677389126674   -6.20843150668251    0.95619366317648
C          24.16716576110609   -6.64781479115213    0.00383330804735
C          25.33828268494214   -7.15349225295133    0.57291940117178
C          25.34228374399831   -7.11141466571753    1.97204136443816
S          23.88599024511117   -6.41497831109944    2.58722706829398
C          26.51983197909577   -7.64026464153107    2.50484925755408
C          27.40865910927138   -8.09104707424537    1.50230040865867
S          26.79410951006463   -7.83711468516456   -0.10635077634348
C          28.50222632003186   -8.64882520984360    2.13839853192097
C          28.29162058349366   -8.48948940970792    3.52040462023425
N          27.06252303618658   -7.88066202000193    3.71899537497778
C          26.32162465794804   -7.74187917840842    4.94205881623189
C          29.19820310153512   -8.92213754914126    4.50871634794595
C          29.39245675598404   -8.54388630056148    5.80876737014994
C          30.11106094076083   -9.47001177900332    6.72451525974714
O          30.70195759800200  -10.48026948912835    6.41406080893359
C          29.89372342956715   -8.92599268415689    8.07946756020215
C          30.24140879970540   -9.45815980528577    9.28674412993057
C          29.89425282900577   -8.76746961906835   10.46998792722043
C          29.18726411220180   -7.53353592555180   10.37637338322194
C          28.83397060618276   -6.85696666785164   11.55973439554099
C          29.17881243114908   -7.39437591400430   12.76872105845795
C          29.87676734917743   -8.60417660381212   12.88176694377722
C          30.22629387468526   -9.27480411626390   11.74263105647651
F          28.84110174672221   -6.74924167562414   13.90020376101206
C          28.85032876712433   -6.99968164096067    9.11000376984557
C          29.20317789662359   -7.68404509551309    7.97943629694600
C          29.01522148441984   -7.37513906144701    6.56347878203096
C          28.76683318934334   -6.12508768687196    6.05130346492579
C          28.85955524815694   -5.81662161866374    4.67944374162586
N          28.95674634819000   -5.51163084489400    3.57709456935645
C          28.47143637186950   -4.99754259126228    6.84130360040199
N          28.18963673822694   -4.05986751905699    7.44131547807979
H           7.68281261403428  -10.23429233156900   -6.46596963555799
H           4.60169357432026   -9.65495755871584   -9.36042982534320
H           3.94983853931612   -7.52237259431813   -8.27047514295196
H           8.02650007986937   -8.59572996660506   -4.67904160331670
H           4.28287068562330   -5.84135619870902   -6.49074979889520
H           6.27886394025143   -2.95113976979595   -2.49636039816005
H           7.59387534929331   -1.82560740607800   -0.50573833593879
H          13.78947877095199   -1.51169094276040    1.59795437170425
H          14.05252688092255   -5.43051173315683   -1.32225935092507
H          13.78768264760204   -4.33038156201727   -2.69646023686462
H          12.41919834545926   -5.19447020363610   -1.97666347450655
H          15.96577301419667   -4.11534341172650   -1.79155781812887
H          19.65250922754882   -6.88799958518639   -2.60792377278746
H          18.53389127720472   -3.51811395567808   -6.53770007410824
H          16.91567650054902   -4.18926067039612   -6.34915840454687
H          18.22947044889439   -5.20786471173643   -6.96664201662580
H          16.97420522413557   -4.18066922207353    4.05738116729805
H          20.53900342030527   -0.98885694343957    6.29371829001682
H          21.39452799428627   -2.49641875910317    6.60823769003125
H          19.86352767905480   -2.15661678358149    7.43824365893188
H          21.41374382404337   -5.04395920627588    2.71864068371318
H          23.96883238042864   -6.59849924438279   -1.05111087250286
H          29.37742454866750   -9.07541299330593    1.69223866203479
H          26.73744396206229   -8.39490895345693    5.70759719246176
H          25.28168871222287   -8.02117636947340    4.76170846289312
H          26.33623856098647   -6.70889375925183    5.30064573937081
H          29.83581494621128   -9.74330296837809    4.19207925209941
H          30.77392797546475  -10.39582372688384    9.34006119552690
H          28.29997978408586   -5.92083375300691   11.51054494005616
H          30.12228922759683   -8.97925644478942   13.86260320986505
H          30.76391740206715  -10.20904997603442   11.80401738767414
H          28.31150724677738   -6.06621477517933    9.06781603862400
