108
 SCF done       -210.686889410768          0.000415040132
C           5.40955572356205    4.37606351679632    7.14192248228506
C           4.24981703062861    4.60292265026399    7.83006715788206
F           4.28806287748798    4.72872114837779    9.16874483677689
C           3.00622046870250    4.71095781193650    7.19289363296209
C           2.94734345608537    4.58462131924338    5.83283163539460
C           4.11214784901972    4.34900057671508    5.07383545844584
C           5.36801108442194    4.24425919643739    5.74072427633485
C           6.55216221770417    4.01415584574625    5.00074728922686
C           6.47833889949162    3.88886071757881    3.64111964647597
C           5.21800236786515    3.97502285345857    2.98151139544357
C           4.06075309637046    4.20587524051897    3.66938783685909
C           5.41242609840753    3.75312221022852    1.54117517058111
O           4.59386032271195    3.80061970998062    0.65234506071549
C           6.85995608143345    3.38938032828465    1.38845176980139
C           7.51739254066029    3.66727464756253    2.63822424474628
C           8.86000832731019    3.86957400012292    2.83194355336704
C           9.79509871452515    3.90447944608252    1.77952266155820
N          10.58365671187100    3.96041840745213    0.94806556200877
C           9.44036013151611    4.20582066000591    4.07307019318853
N           9.97178962414928    4.48065966271479    5.05188226298349
C           7.23867201937570    2.81538812731403    0.21017451983166
C           8.36163148306809    2.02831058548938   -0.12755271952916
C           9.26910862528149    1.31563272510806    0.66422802454277
C          10.12732268716482    0.58738401402296   -0.19509138463192
C           9.71062717005339    0.81405185395219   -1.56581130476402
O          10.08824957501989    0.36308378433727   -2.62155992149226
N           8.63625828140098    1.71458032512483   -1.43790575737083
C           7.98422352255341    2.26582108056967   -2.59396684107115
C          11.01987217843223   -0.13817397335569    0.57999789452221
N          10.74231653129752    0.12520631902631    1.89641514428200
C           9.66172443095345    1.01778919032047    2.02102203613518
O           9.24211992974595    1.39966604591935    3.09848882382924
C          11.53175045912616   -0.23335892886600    3.04558635229212
C          12.04471361596411   -0.97425753136076    0.03959359374132
C          12.77785479288107   -0.66166969855902   -1.09511125218152
C          13.65400196734716   -1.74338734472905   -1.36571704892746
C          13.39504514224507   -2.79092955113452   -0.40236124291479
O          13.79403778668491   -3.92591917588158   -0.28636123218740
N          12.42947151762673   -2.22026021035034    0.46463322366060
C          11.81226678614108   -3.02226182036451    1.48670519562841
C          14.38420316086548   -1.43604813036383   -2.50516174237677
N          14.00347038789296   -0.19616691629654   -2.93485821141666
C          13.03192612280728    0.38025599123119   -2.07052462185846
O          12.62102797276618    1.50499598357125   -2.20591592426585
C          14.62418004024447    0.59838031554446   -3.96089339254735
C          15.38267457340801   -2.30819171800738   -3.04128894674824
C          16.24219951246521   -3.05354261274773   -2.24709759983427
C          17.03249690852568   -3.87062222277952   -3.09111423124872
C          16.62828389212205   -3.62755651526655   -4.45982832484610
O          16.96429155903209   -4.11026275504363   -5.51536090212337
N          15.61942364730015   -2.63615959191815   -4.34832985301384
C          14.85462043899494   -2.23922620876829   -5.50032707141365
C          17.96862326054367   -4.53538341107390   -2.30856685347039
N          17.75533869934865   -4.16607307147054   -1.00264759081073
C          16.69246918663169   -3.23571869970327   -0.88414277774659
O          16.34003679080806   -2.77194623320199    0.17342457599145
C          18.32491708794385   -4.75332125688960    0.17947007842303
C          18.95674433014891   -5.44342832858971   -2.77924454168134
C          20.21137669245903   -5.66621219310546   -2.31026215124859
C          20.93547214763953   -6.92599203903095   -2.66503822248445
O          20.61758670043804   -7.72602960450977   -3.51093238311660
C          22.05985068206052   -6.99857400295463   -1.71353902314711
C          22.95216772696354   -8.01337875077077   -1.51800305824621
C          23.94069754268329   -7.87886796525814   -0.51783348499816
C          23.98423655981060   -6.68894322720061    0.26678558366307
C          24.96674755114815   -6.56603015761683    1.26806479781381
C          25.85640399998298   -7.58588430586478    1.46416664247508
C          25.83098003291820   -8.76244314051947    0.70241177379699
C          24.88344517435114   -8.89864800089391   -0.27358400752390
F          26.79434666830575   -7.47064601627121    2.41964822826833
C          23.05264078385474   -5.64963134878196    0.03686653545543
C          22.10774141764776   -5.80069325525539   -0.94164232876739
C          21.05153544685155   -4.90830241129251   -1.40793584648679
C          21.00099998751869   -3.55208762810160   -1.21676719445910
C          20.10899197112832   -2.69782053049578   -1.89840932953870
N          19.44278477171469   -1.95743149403490   -2.46858518492126
C          21.90055877220978   -2.84859701085549   -0.38856748099464
N          22.59814538533699   -2.24226857671182    0.29137042293755
H           6.34972525408627    4.30093785880618    7.66552192122304
H           2.12498364453688    4.89044442504492    7.78806108778734
H           2.00089309715804    4.66340292489354    5.31935053251130
H           7.48774479095661    3.92705673351525    5.52928286697175
H           3.11666248953171    4.27351988561599    3.14969329389642
H           6.48937632573273    2.90808662376250   -0.57203155611534
H           8.51783451717203    1.88489508789319   -3.46474707374730
H           8.03593141460139    3.35529939651020   -2.58626645346823
H           6.94008583362084    1.94931156575569   -2.64983896290951
H          12.56526499057261   -0.40206969640542    2.75019238061264
H          11.13211982149146   -1.12108965638787    3.54033968757892
H          11.48377666821460    0.59614601559863    3.75306986668005
H          11.90293416653302   -4.06531674893441    1.17871443787076
H          10.76053263925128   -2.76085218593152    1.59358675268881
H          12.32627648304973   -2.90881697089783    2.44317295204658
H          15.67774699273273    0.33984993176166   -4.05574877511640
H          14.52625000694258    1.64404880591869   -3.66490777761739
H          14.11708410485061    0.47164948598641   -4.91939393462696
H          14.90531234712235   -3.05597420080572   -6.22204964705814
H          15.27833200303347   -1.34853890004245   -5.96856688939367
H          13.81758404735879   -2.05711348449999   -5.22278210327770
H          19.17132259278308   -4.17025159038036    0.55214196392727
H          18.64550366773328   -5.77554262877009   -0.01781192323654
H          17.55169291677901   -4.75055605765630    0.94939351968768
H          18.64922718790632   -6.05688787273400   -3.62107358586963
H          22.90320005004909   -8.90938299210501   -2.11831571881474
H          25.01825876082244   -5.67312570480130    1.87126496105750
H          26.55813692677583   -9.53315835376626    0.90294030100054
H          24.84387786446488   -9.79552528268263   -0.87308657290411
H          23.10263868043247   -4.76335513878243    0.64960586015265
