103
 SCF done       -196.652930318377          0.000716734845
C           6.29450935937044   -5.13502027004831    9.72160929242562
C           5.60432203433997   -4.44431628518613   10.67850847099274
F           5.88979788101331   -4.64822825506092   11.97835280985544
C           4.59958157710992   -3.52108065176964   10.36075399329764
C           4.29670639737582   -3.30004166990681    9.04567580772208
C           4.97733253618754   -3.98378854410975    8.01799629306440
C           5.99381631370357   -4.92134881894334    8.36265890540816
C           6.68254500726536   -5.62927251235883    7.34959913843732
C           6.36643830348355   -5.39962114950881    6.03897508281751
C           5.36231137725613   -4.44751616225399    5.69836280759226
C           4.67580651249602   -3.75836587612591    6.65522456000853
C           5.24688244507147   -4.36840706002258    4.22812646439044
O           4.46909597119022   -3.70695452764488    3.57643982183972
C           6.33433925227195   -5.23538792089988    3.70478411087726
C           6.86897717586688   -5.99808603976445    4.80598479815924
C           7.49719363860143   -7.21723599061132    4.71774842150022
C           7.67956703294551   -7.90529660046663    3.50210928746484
N           7.79111639532076   -8.50910685128770    2.53089466090189
C           7.93397551568345   -7.95764259353581    5.83228905419464
N           8.32991626604561   -8.58916963672798    6.70606668583492
C           6.68488870827383   -5.16426355487935    2.38517993679379
C           7.89512413887757   -5.55964308996631    1.76415912032225
C           7.94897486373123   -5.85119394854610    0.41497073910346
C           9.06508879317161   -6.34760755821992   -0.24230693727979
C          10.30525016051386   -6.63899382540866    0.48816040083299
C          10.51824948362052   -6.31844927615184    1.78232852216078
S           9.33660578938099   -5.58447626498716    2.78053635040387
C          11.15163238169086   -7.30143018705338   -0.44287149140137
C          10.49437216218076   -7.42604339780320   -1.66818634423562
C          11.28675396433287   -8.08544606971485   -2.63427056513305
C          12.49619350615987   -8.43789922164139   -2.12702466226723
S          12.72420509707726   -7.98569603899032   -0.46910035548787
C           9.20341194511301   -6.80132915941776   -1.57684015429410
C           8.31834897060648   -6.70304672133149   -2.66919185539293
C           7.32777977557462   -5.77852064466230   -2.83655275321977
C           6.46630222512732   -5.74138583258882   -3.94918172348663
S           5.63549719309852   -4.25729797324024   -4.35481692012277
C           4.91090321780984   -4.92842553137434   -5.79472361339925
C           5.27430163042667   -6.26088247028021   -5.90709751813102
C           6.14481330453690   -6.73086661956166   -4.88569506710095
C           6.44152738302929   -8.10401275088686   -5.04636502996783
C           5.84482201152932   -8.63706240510840   -6.15081296021414
C           5.94440688705282  -10.02523568846813   -6.60120006885729
O           6.62253790311691  -10.86932843979063   -6.06767624384951
O           5.18316461220192  -10.23658633618272   -7.68219234737494
C           5.18986186636390  -11.55371749673222   -8.20840558114751
S           4.87736377183904   -7.49817749700680   -7.05528384965603
C           4.12860386118833   -4.15290856257015   -6.67827614341259
C           3.46589035504473   -4.59516695815879   -7.81286488402275
C           2.84198837202424   -3.55197274521544   -8.49094496375976
C           3.02799579956208   -2.30026443712902   -7.87523241031587
S           3.96030255265108   -2.41577880597706   -6.44708318817977
C           2.39199019364779   -1.31191392507479   -8.66319869739060
C           1.79862287118355   -1.93446783579894   -9.77452271236791
C           2.05356242674874   -3.36399884690246   -9.69840548126372
C           1.64579694565669   -4.32468450402350  -10.57644095038418
C           1.95996944790423   -5.68897187706695  -10.40208026780732
N           2.21008044982325   -6.80039609759445  -10.27126946732527
C           0.88071549896626   -4.02056664866021  -11.72208824136373
N           0.25820757005470   -3.78177364972322  -12.65509903910767
C           1.17168689349030   -1.03435343931503  -10.63578313870671
C           1.28629131626663    0.27203554888811  -10.19672984096422
S           2.17432842687340    0.38575429289016   -8.68183596765937
C           0.80569183090134    1.44184038387484  -10.83399049989445
C           0.95986419765294    2.75709770915437  -10.43001340971097
C           0.38047268016081    3.65259412286285  -11.32076165653093
C          -0.22076772350067    3.02181830042720  -12.40668119671341
S          -0.08029981903835    1.31487834259324  -12.34464633942747
C          -0.77547213254100    4.00776041383520  -13.26294905165813
C          -0.52762361918975    5.26336715856026  -12.72696115305439
C           0.23836566410112    5.15358080733419  -11.42922027292296
C          -0.56358169145888    5.72448830438636  -10.25674535232683
C           1.60674162699867    5.83320502727896  -11.53138866815734
C          -1.04372743569774    6.29531779118739  -13.52194548435421
C          -1.66734071021656    5.80879947390081  -14.63451923836021
S          -1.64282594448043    4.08527942864501  -14.74360654131532
H           7.05939315600981   -5.84197019939467   10.00278749924911
H           4.08813222450183   -3.00606166546426   11.15841501397600
H           3.52638570311273   -2.59309306686375    8.77629856709600
H           7.45070271051683   -6.33010013759450    7.63614298658102
H           3.90992439726949   -3.04938022056526    6.37840555059117
H           5.95399727211072   -4.68212928063700    1.74290672228638
H           7.01609032000495   -5.77977434175105   -0.12712959791442
H          11.45416755327740   -6.50725200438353    2.28379373077743
H          10.98397925326591   -8.29328779161863   -3.64434892303247
H          13.29489430967846   -8.94888695517904   -2.62809260262786
H           8.51762478803600   -7.38450655775599   -3.48462086700402
H           7.23632324751409   -4.95924069031509   -2.13711372203359
H           7.03780171958203   -8.70057448104623   -4.38149154557980
H           4.50948099339130  -11.54321051785834   -9.05561715940928
H           4.85333074939614  -12.26518655650551   -7.45135379757944
H           6.19764747547751  -11.82940215644468   -8.52619211526306
H           3.44919206900085   -5.62500837054454   -8.11722543803704
H           0.66118735459145   -1.29645825458660  -11.54494041861711
H           1.47875848316645    3.02354107670586   -9.52626901027529
H          -1.53329590170075    5.23652756456629  -10.18961496376169
H          -0.71898671892295    6.79154746553868  -10.39547144183418
H          -0.02726753024348    5.56559898429148   -9.32440389842354
H           2.17107893466378    5.42188734294050  -12.36530143126370
H           2.17177916216270    5.67573507682992  -10.61593702148657
H           1.48199292252844    6.90176473324303  -11.68814994074561
H          -0.96707306090432    7.34413891005240  -13.29917478959462
H          -2.14974423167222    6.36490873731636  -15.41367662207768
