90
 SCF done       -177.941298616043          0.000836516245
C           6.80233852937919    0.86925312461259    9.70805389683733
C           6.22249938020507    1.76657454464800   10.56121657058859
F           6.49693286152004    1.70169951422268   11.87698174895274
C           5.34339196652075    2.76413450235777   10.11886447544559
C           5.05282754699405    2.84561126856958    8.78524008142937
C           5.62174314004388    1.94564976308761    7.86119579362750
C           6.51188186732989    0.93668262397591    8.33178650223063
C           7.08486674525517    0.01346583286957    7.42580221680251
C           6.77707780794062    0.10115506199338    6.09582369164555
C           5.90010531315829    1.12256583059460    5.62796001050833
C           5.32888369217354    2.02210958677551    6.48057948493210
C           5.76143684540437    1.01225142860960    4.16269609449090
O           5.06251727915857    1.67118270416632    3.42736854087193
C           6.71692981377610   -0.05690814799349    3.76096560468928
C           7.16904881218470   -0.72532602778054    4.95837258256147
C           7.62258554161956   -2.01914342262167    5.03900296717282
C           7.68588475686156   -2.88533901497165    3.92951408115775
N           7.69418676464461   -3.62754375568216    3.05264283733190
C           7.97708642072753   -2.65274106201807    6.24547754997881
N           8.29600484789366   -3.20977142796831    7.19742156845188
C           7.04623931659795   -0.20874344002144    2.44613949799637
C           8.17586064140889   -0.85209594062030    1.87488256613102
C           8.14380162088175   -1.33409376617633    0.58310821654219
C           9.17655008298392   -2.03400621588211   -0.02581593789534
C          10.44575326931525   -2.27088229342523    0.66492367966844
C          10.73146703779153   -1.82056639209614    1.90635403110684
S           9.62959790942306   -0.93314109604800    2.86816499024920
C          11.22805215659490   -3.03891618979572   -0.23896916728821
C          10.50446979013998   -3.28705072229966   -1.41064674284251
C          11.26897041739993   -4.02629459874431   -2.34361053513980
C          12.50528681700746   -4.31871150738853   -1.86332019007086
S          12.80411798496011   -3.71269116497088   -0.26991999763175
C           9.21124008146813   -2.66669058182500   -1.29213922951895
C           8.14462921262986   -2.67245540533369   -2.21582176004376
C           8.04805192972731   -3.48376264067329   -3.30507618498285
C           6.96344114267544   -3.48038583301053   -4.21068733017050
C           5.89373895634105   -2.59870979284339   -4.30429177259899
C           5.01855815752258   -2.93873839540275   -5.32906173502002
C           5.40787622038759   -4.09760098236478   -6.02915084100416
S           6.86829990287789   -4.74914576040121   -5.42915569729611
C           4.44578192807601   -4.36396463433495   -7.02852854095363
C           3.45053555974386   -3.36858693974344   -6.97609977859204
C           3.77946167551521   -2.43979476875903   -5.90861087675790
C           3.07893287093982   -1.33369292821235   -5.52617210988281
C           3.50711700556624   -0.51327550311031   -4.46162989300743
N           3.85920573382124    0.14863991830318   -3.59390620198662
C           1.88680406397806   -0.94044495606380   -6.16977918174123
N           0.92079086178706   -0.61407509536302   -6.69414623073181
C           2.44732219443507   -3.55302995176825   -7.92309734522622
C           2.65540309799127   -4.68647495361318   -8.69325617586789
S           4.13281074110766   -5.52950688501707   -8.23805516815243
C           1.82457939553941   -5.16615445909842   -9.73004717146314
S           0.45493125389321   -4.22773930536732  -10.25326751378741
C          -0.02424055930407   -5.40658213958530  -11.45396106684685
C           0.85436541600475   -6.46708275234428  -11.42471470703533
C           1.90160273451889   -6.34929027111907  -10.46109626091621
C           2.75326183466174   -7.47843661231510  -10.46139451610153
C           2.37259705039408   -8.40868965060505  -11.38093552513310
C           2.97734367637360   -9.70973429996509  -11.66773393005578
O           2.57525055125145  -10.47423233974166  -12.50941378072717
O           4.03316950357727   -9.95357566043651  -10.87436015388179
C           4.67120795426742  -11.20659041487606  -11.07632381586353
S           0.95810284389369   -7.95888248405666  -12.30784714343549
C          -1.17940676704917   -5.18348146580184  -12.27419775663960
C          -1.59016346411539   -6.06736272468884  -13.28470425646183
N          -2.65663351878435   -5.84308216176324  -14.02399272260786
C          -3.34224066648183   -4.73901509553954  -13.78434909652635
N          -3.05571797402779   -3.83094096383476  -12.86638805417480
C          -1.99239998182408   -4.04920739223079  -12.12276679099086
H           7.47164438659781    0.11146964866249   10.08439818012386
H           4.91582688553768    3.44409303442003   10.83850962787795
H           4.37829551170352    3.60564434200219    8.42062804015161
H           7.75993410302031   -0.73685128194629    7.80620649544365
H           4.65865128248619    2.78226324740576    6.10813800041474
H           6.37693333363365    0.28389865476703    1.74692727807833
H           7.21252142503899   -1.20361024542861    0.04863199320117
H          11.68089319768448   -1.99761668648149    2.38658420713487
H          10.94768368298278   -4.32200098575235   -3.32509056870145
H          13.28578284400979   -4.86547988439149   -2.35535549888678
H           7.32720837898276   -1.99760649844724   -2.00445611216184
H           8.81351831915044   -4.22231449129023   -3.48772519470854
H           5.77538318149439   -1.74853660283088   -3.65886979178379
H           1.59399534330444   -2.91294686816470   -8.05827948386831
H           3.60236902248928   -7.61447434301171   -9.81808046588601
H           5.49907079712693  -11.24090813800815  -10.37314068333533
H           5.03340021056330  -11.28725544041636  -12.10318717355897
H           3.97107711653591  -12.02286435533566  -10.88676835462405
H          -1.04257920032504   -6.97495735899952  -13.50128033193406
H          -4.21719872723305   -4.56126961578623  -14.39459565105960
H          -1.76763869142535   -3.30023944786728  -11.37219090616600
