114
 SCF done       -213.683515822714          0.000518656253
C          15.32757912319271   -3.33107647171199    5.05353946262728
C          15.05894368107792   -2.82943722743738    6.29671599653010
F          16.03402174678204   -2.80070984160633    7.22443040193841
C          13.79602646466111   -2.33747288213006    6.65153790751509
C          12.79357016766297   -2.35746501315092    5.72154518807007
C          13.01526243109219   -2.86279009327815    4.42451589230092
C          14.30620166677193   -3.36190609016170    4.08471084994556
C          14.54949713676027   -3.88682117316899    2.79335999958199
C          13.53574544752809   -3.90422359203235    1.87562489754138
C          12.25181630677323   -3.38621277537144    2.21401954159746
C          11.98707771381576   -2.88336866385551    3.45445149705485
C          11.36147850747288   -3.49129562551120    1.04123404513368
O          10.18920012824775   -3.19321431320226    0.96551309487192
C          12.22508363782300   -3.98806113822374   -0.06046095629140
C          13.47882955407501   -4.41410650626725    0.50866355978817
C          14.32935831493092   -5.35385585125632   -0.02293112237994
C          14.04762317173616   -6.05942156632672   -1.20916949973438
N          13.81626661045399   -6.68767555501902   -2.14302287112707
C          15.51045031100825   -5.78866144185111    0.60666572158800
N          16.49448112830846   -6.15902151322241    1.06859540538081
C          11.77309379406907   -3.92667425059496   -1.34975529261656
C          12.50229352689712   -3.93319096837914   -2.56269989439416
C          11.88610555202344   -4.24851894460059   -3.75890758285697
C          12.52613584621852   -4.33754000926910   -4.98572251395423
C          13.97877896717997   -4.14869093635887   -5.09071118311342
C          14.76673467068153   -3.73764072386625   -4.07386079724718
S          14.18912033621003   -3.42337767395773   -2.49300189708737
C          14.31194610734679   -4.48558355727378   -6.43107832432093
C          13.15674061072983   -4.85522002735276   -7.12324471471392
C          13.42739515681972   -5.19887003069233   -8.46680648302365
C          14.75063540796051   -5.08726225733483   -8.75081358529920
S          15.71741500708049   -4.56030309637694   -7.41168670723055
C          12.02318672484124   -4.73543015790028   -6.24925695698719
C          10.69772409950222   -4.98260289845912   -6.66468096193095
C           9.55895896301145   -4.52406398485484   -6.07387005850860
C           8.24117794617700   -4.83123115654914   -6.49621831630807
C           7.14086446078051   -4.21578787503021   -5.92770379935013
C           5.81928570067821   -4.46578510887297   -6.26777829439174
C           5.47109199164909   -5.46807954620385   -7.27622497901875
C           6.37821482072610   -6.19080471225079   -7.96923344474084
S           8.07326358219016   -6.04604538917131   -7.75827497489867
C           4.05147139375573   -5.46962057694613   -7.33131494598617
C           3.53058647199976   -4.53355306061238   -6.43163385913594
C           2.11806361933709   -4.49542591887313   -6.48313479067827
C           1.62530945891644   -5.38129194017325   -7.38644438879082
S           2.83746257751151   -6.29644931949396   -8.21800976146152
C           4.62882441503305   -3.88840229438531   -5.75547866552322
C           4.60077674613526   -2.85597931770448   -4.80190423852340
C           3.49602681598270   -2.31408127536103   -4.21185215242075
C           3.52376988353667   -1.22413284618879   -3.30901100777204
C           2.36953981125319   -0.75780651190775   -2.70102364064557
C           2.29432352371083    0.34002523550605   -1.85810095099370
C           3.46911078919282    1.15799336213566   -1.56319654519672
C           4.71354153343859    0.87630572098887   -2.00892018961710
S           5.08065472588877   -0.46122953783308   -3.01442386951985
C           2.99009018812698    2.23762367333863   -0.76988057745342
C           1.61157295881019    2.12354070431618   -0.58081854539705
C           1.10662289267466    3.18014495509474    0.20970742733081
C           2.08700680100910    4.04490635921599    0.58141378138380
S           3.65851333392386    3.61991681235937   -0.00159374752881
C           1.15441071273509    0.92328325854497   -1.23817173082460
C          -0.12842838041133    0.37284274150156   -1.30346942339886
C          -1.30986943837646    0.95713436321577   -0.91385352684184
C          -2.56710793692321    0.34597600254874   -0.97006624246045
C          -2.97626125313548   -0.83971650624995   -1.55089891390414
C          -4.18622588638460   -1.49959955256103   -1.00785718986960
O          -5.00500612799764   -1.02061558454582   -0.25207615608232
C          -4.15316000610734   -2.88088959043230   -1.53661446489027
C          -4.96896412684097   -3.93500154575025   -1.25163873594392
C          -4.71136589079864   -5.18889175194314   -1.85377655005385
C          -3.60895084813910   -5.32040846683524   -2.74594681194985
C          -3.35098540367629   -6.57384685899145   -3.33270197928435
C          -4.16234555718889   -7.63358849209305   -3.03701530061567
C          -5.25240067574535   -7.52458388716763   -2.16496955043768
C          -5.51632189980296   -6.31383517037897   -1.58602668151167
F          -3.91441999705471   -8.83359789295366   -3.59837350222174
C          -2.78935458965623   -4.20308173235652   -3.03491503446610
C          -3.05860509271439   -3.00281089791871   -2.43847727184457
C          -2.41234491913076   -1.69530966922648   -2.55217952785568
C          -1.57503838938679   -1.32802228501140   -3.58694878602184
C          -1.21870172107263    0.00584637205267   -3.85828267546398
N          -0.92414632359844    1.08033824144515   -4.13773081138309
C          -0.97616484528697   -2.22626018461733   -4.47879212893164
N          -0.38054917998006   -2.91301291331005   -5.18512467946482
H          16.31114639055340   -3.70557287009190    4.81642919406422
H          13.64234821494397   -1.95468099589660    7.64797523969616
H          11.81193800233935   -1.98367207427545    5.97150060705629
H          15.53590994740744   -4.25532782289355    2.55978223627035
H          11.00450971152570   -2.50640173967287    3.69602881508721
H          10.70095322790445   -3.78130876724866   -1.44485661782042
H          10.84508991880337   -4.53222213832113   -3.69336796191358
H          15.82648583433124   -3.57330020322167   -4.18812028688472
H          12.69077734392091   -5.51286730501521   -9.18376835655388
H          15.24110961999773   -5.28357492571815   -9.68414305115472
H          10.59981377538555   -5.55720068324106   -7.57817325834767
H           9.62830711915599   -3.83355830109712   -5.24557577053908
H           7.34842276044675   -3.48220948298035   -5.15983702039392
H           6.09637637839884   -6.91887428809870   -8.71313269911963
H           1.47416034343808   -3.85527298418100   -5.91002596394669
H           0.59626277709619   -5.55923562177638   -7.62920664489518
H           5.56522592749788   -2.45289972881532   -4.51727195144156
H           2.51853929914277   -2.71552533935379   -4.43113898642042
H           1.46322261327684   -1.29864952416609   -2.93674876945438
H           5.57159937335548    1.48325251228094   -1.76730602087643
H           0.08092088999024    3.31005106736716    0.50069716575693
H           1.98719414725206    4.93097492164007    1.17738434400138
H          -0.16983292187590   -0.64252895785339   -1.67226442549737
H          -1.27854205565408    1.94757765373731   -0.48658448766845
H          -3.35003123479338    0.81988432850805   -0.38456687913450
H          -5.80041657924971   -3.81871491973307   -0.57281032849626
H          -2.52053297974873   -6.69479714303027   -4.01084920144642
H          -5.85792432157346   -8.39499606133184   -1.96836079474729
H          -6.35050414992158   -6.20500102153443   -0.90927626691170
H          -1.96040606256609   -4.33248917403027   -3.71314176758034
