112
 SCF done       -217.443329940127          0.000937083716
C           0.66777456911039    0.68925777847302   -1.98520204253329
C          -0.49441900107020    1.35728446385687   -1.71705212486683
F          -1.64579806519714    0.93933834841269   -2.27547236273252
C          -0.54113887646274    2.47526773734701   -0.87312141740939
C           0.61459494874069    2.91241853923526   -0.28724580916632
C           1.84044751230158    2.25820583229721   -0.52438216590724
C           1.86779555605220    1.13127253236399   -1.39645163303089
C           3.08681949307454    0.46652184361389   -1.66683079026826
C           4.23273400880500    0.90508064609870   -1.06341253564423
C           4.19650010355244    2.01136946373813   -0.16545565503724
C           3.03820483777650    2.68502076507472    0.09346436116763
C           5.54306175683133    2.22345159129344    0.39511809355999
O           5.90762588459271    3.08960323480364    1.15806435701300
C           6.36721723968487    1.09507052725301   -0.12526293290814
C           5.61306743542172    0.44147595604737   -1.16851191185948
C           6.11930751350774   -0.28692824432136   -2.21936766295503
C           7.50121175785914   -0.45008744561217   -2.43722469134577
N           8.62133988514913   -0.57731254514032   -2.65501377585949
C           5.34148878996809   -0.91959435334481   -3.20672802400852
N           4.77737383017554   -1.51873749090832   -4.00869015387029
C           7.54968110623786    0.82303388930392    0.50571403649241
C           8.33837031286768   -0.35021949969786    0.50832394046789
C           7.91304808379907   -1.58834434354299    0.06695065088110
C           8.68681385124899   -2.73559737940179    0.04799671077325
C          10.04748479261789   -2.75168809876517    0.58874222205871
C          10.66014061301620   -1.66919223209510    1.12098745158600
S           9.93952096158687   -0.11997324901702    1.20823010879235
C          10.50392484405935   -4.08281978547392    0.40556471911173
C           9.52335981043242   -4.84601558542526   -0.24276283790793
C           9.95063513837804   -6.18221100457964   -0.42855296231241
C          11.20212547952126   -6.38609890087875    0.05695775745067
S          11.92274342805588   -4.97882793926407    0.76113397530282
C           8.38007435888756   -4.00983666822910   -0.49202596730967
C           7.21259761603349   -4.29873741466616   -1.22987443456955
C           7.01582740728378   -5.42166920075246   -1.97381829997409
C           5.89544258141663   -5.68092089633835   -2.79335633188912
C           4.75181777911420   -4.92216710932318   -3.02829742637578
C           3.90464905295882   -5.52987911752823   -3.94621691726660
C           4.40266616993822   -6.76055129620083   -4.42360280645365
S           5.90362445295346   -7.16612954045064   -3.73454958662272
C           3.48427499305292   -7.28194525360454   -5.35779869287474
C           2.40530702449852   -6.38582669649854   -5.49308860992383
C           2.62697886067413   -5.26517908525700   -4.59441831745511
C           1.78462830315076   -4.21497176637980   -4.37494008999293
C           2.02512144955985   -3.22605914966943   -3.40227497653662
N           2.16116458567140   -2.43285742485743   -2.58489927382919
C           0.56977009816476   -4.07566911988163   -5.07956599530270
N          -0.41986364946156   -3.96369895042182   -5.64788561896969
C           1.44386128974423   -6.82836689256666   -6.40090254744730
C           1.77563188665455   -8.04995263501116   -6.96038628776195
S           3.30977732306993   -8.66326249920733   -6.33480486240943
C           1.06457154387213   -8.82656308065281   -7.91662908551583
C           1.59560580324048   -9.99772205585573   -8.41326449677165
C           0.99125362191790  -10.84411041518711   -9.32996387124221
C          -0.31911352265326  -10.50104455988033   -9.89074945236208
C          -1.02456765091121   -9.39711428840180   -9.55108632522846
S          -0.50415745269828   -8.22878330512902   -8.40860522834002
C          -0.62130546924107  -11.53632132013292  -10.81853894602108
C           0.42101731276747  -12.46057088225469  -10.84516689946798
C           0.17479712115389  -13.51258949669763  -11.75312301085503
C          -1.02261786208744  -13.36110026290132  -12.37888352587074
S          -1.89546206372372  -11.94736313885242  -11.89596689994235
C           1.44726215671617  -12.05621189366524   -9.91170368081746
C           2.63238849843647  -12.78598260289083   -9.73003361709781
C           3.64752159489168  -12.55655064428369   -8.83467291142797
C           4.81061783399553  -13.32808383406429   -8.77419330812599
C           5.90261755879378  -13.07701636337799   -7.97067100627369
C           6.84427361381272  -14.16548773273082   -7.62847989758068
O           6.91412671737074  -15.26153932926710   -8.14248461331733
C           7.64150796856630  -13.65181484015291   -6.49120486103681
C           8.57946120570375  -14.28931512264441   -5.73382416685563
C           9.18997290901481  -13.59566342593988   -4.66236617949813
C           8.80532226650371  -12.25092446671177   -4.39425555791413
C           9.41059848276789  -11.56594746806122   -3.32341350829058
C          10.35503564284358  -12.20214171039229   -2.56776924720044
C          10.74813964382850  -13.52336158914665   -2.81411908272884
C          10.16790147256282  -14.20340632947897   -3.84963752041094
F          10.93637662262780  -11.54315740842217   -1.54424630684292
C           7.83298616623707  -11.61364872554417   -5.20038761554483
C           7.26765139356135  -12.30153238205396   -6.23781930171899
C           6.28301296528090  -11.89968219230642   -7.24232422033758
C           5.97742886267750  -10.58978313138482   -7.54310173605296
C           5.27305618960389  -10.17147244737051   -8.68778798060320
N           4.73380034662756   -9.75408399881905   -9.61317524110183
C           6.41888408416660   -9.48822445371011   -6.78984441089975
N           6.71432022720939   -8.54578086806570   -6.20070676797602
H           0.67318886388525   -0.17233278590829   -2.63409118003134
H          -1.48717581073131    2.96382026080621   -0.70092783728353
H           0.60155939094161    3.76845047021456    0.37069009389875
H           3.07142602606006   -0.39119226920611   -2.32002651511491
H           3.03277428423043    3.52935982077624    0.76643745885396
H           7.89531588061225    1.62274823007277    1.15516149428420
H           6.88316283712663   -1.66168515118627   -0.25137996252019
H          11.66509380686424   -1.70597036759217    1.51125638667455
H           9.37563585277327   -6.97047237756709   -0.87769809785012
H          11.76501601036858   -7.29902766673457    0.04832843221233
H           6.44797173037504   -3.53436529542902   -1.24408065804810
H           7.78671883241440   -6.17617082076350   -1.99711023406533
H           4.56505795211155   -3.97059097374379   -2.56605678867858
H           0.54586051186975   -6.29539292572078   -6.65798858619920
H           2.58340807065079  -10.23709089729514   -8.05907775815401
H          -1.98604735114746   -9.17177327107388   -9.98505844954141
H           0.83822392623904  -14.33722951409924  -11.94013766359174
H          -1.46470853059428  -14.00477506230911  -13.11406082713900
H           2.76141206344425  -13.62314914950893  -10.40681239602902
H           3.55470223235990  -11.76956894164501   -8.10634017846291
H           4.84733011175594  -14.25486980991533   -9.33620545548957
H           8.85592426782242  -15.31107293466818   -5.94669286938089
H           9.13311836245609  -10.54562490058353   -3.10889246100357
H          11.49810017728747  -13.97527948408337   -2.18453502252544
H          10.45529640569820  -15.22291669120118   -4.05859026876933
H           7.55638910477855  -10.59739605886228   -4.96869002415449
