126
 SCF done       -232.169506502505          0.000490805096
C           5.71271967250286   -1.15583387498201    4.00559928523323
C           6.09702522356567   -1.96347721203949    5.04073743259100
F           5.18090252169393   -2.41464817928075    5.90791278817659
C           7.43162947718258   -2.35038540462237    5.23533348594126
C           8.38220005340028   -1.92630530838913    4.34957151304642
C           8.03766907916521   -1.11368257340293    3.24993819811169
C           6.67912376230089   -0.71320616574041    3.08057469525063
C           6.31536125568649    0.10778978465698    1.99028629640772
C           7.27039314561446    0.48383342782594    1.08339976974738
C           8.62370505726711    0.06417939839560    1.24877794127814
C           9.00830094160550   -0.70380453989548    2.31025618970988
C           9.44761205521659    0.59740235020166    0.14810478439395
O          10.61155387532995    0.39650989853173   -0.09086898223405
C           8.53465606384181    1.53680165930832   -0.58150203494378
C           7.17512838940838    1.27135798945828   -0.13322251158966
C           6.03587191725884    1.55415549778244   -0.83493851506012
C           6.02934021710873    2.10737948396977   -2.13314275347765
N           5.95210435448674    2.50007664897171   -3.20845682438339
C           4.73184397236606    1.32834275004607   -0.36770499420029
N           3.63265919900596    1.22780399104245   -0.04749163024650
C           9.03420441872901    2.55448245097130   -1.31244838127056
C           8.32522781790649    3.75414963681412   -1.72225551399034
C           8.49797133103535    4.22108238523852   -3.03085336483196
C           7.73163118329116    5.28229350784718   -3.45062573224639
C           6.82460954086302    5.90510819551014   -2.58730851416800
C           6.13168715703910    6.97861367776609   -3.34528786105547
O           5.28110863194302    7.74634604664930   -2.97495051229750
N           6.67677797445349    6.93785104564094   -4.61768305820950
C           7.64770260535272    5.95747796895383   -4.77053402426171
O           8.27218732525489    5.75192614132084   -5.77775162890607
C           6.23643519823697    7.79173098329306   -5.70088038820780
C           5.11585443316552    7.13224964099498   -6.49678619554098
C           6.69360108460046    5.50579284039386   -1.27802009575375
C           7.45752617414647    4.42361944831008   -0.82747082837737
C           7.39596416970352    3.98814468573835    0.55915195133987
C           6.27707231079735    3.92669841079805    1.29698061864988
C           6.18046644368877    3.31034425255761    2.60734478782016
C           7.33217173476569    2.87340346413414    3.28374314782762
C           7.19825436045011    2.14890022530419    4.44117506018690
C           5.93644434987085    1.85675239254767    4.97085321901523
C           6.13223124485319    1.08466440238793    6.22082727529057
O           5.32179426154849    0.66897572517228    7.00573281400492
N           7.50849706754264    0.91649361964041    6.33380592678769
C           8.21925686703987    1.51329960703230    5.30598714977832
O           9.41599096686079    1.46402319668641    5.16801720053291
C           8.13145087469540    0.22613182423937    7.44309252754780
C           8.46859507959170    1.19053178302663    8.57457967447738
C           4.79424135180311    2.28349215331782    4.33871975516811
C           4.90700028845740    3.02253224842389    3.15142774534782
C           3.67271082780359    3.51324356481595    2.55247145429088
C           2.54792234646093    2.78960199673289    2.47224038314551
C           1.25665700185682    3.32826230694918    2.08166896719390
C           0.95170757193341    4.65563839010014    2.42041508135311
C          -0.31633718290189    5.13170229211364    2.19325925074394
C          -1.30392468784362    4.30969501897053    1.64020467463831
C          -2.55499227889275    5.09945039629327    1.53793509089802
O          -3.63477852896396    4.77473293713307    1.11494133940374
N          -2.23740681149392    6.35415064118607    2.03881904096969
C          -0.91949544727249    6.46118519777303    2.45797030835084
O          -0.41752972204831    7.45118708907330    2.92505967610291
C          -3.19853937181056    7.43023038718892    2.15656459534193
C          -3.86724450745841    7.42497059723603    3.52658481483535
C          -1.02625103961369    3.01034284010143    1.29017596098763
C           0.26743624322886    2.50522948955057    1.49935978403239
C           0.56167505365552    1.16201782532896    1.02364736017731
C          -0.34768659241341    0.16658157402905    1.11698459546619
C          -0.36176907785032   -1.09716596160586    0.46112741028276
C           0.53472807011267   -1.79900088717623   -0.28338007107684
C          -0.03346386541397   -2.82203750445410   -1.22266248222496
O          -1.15736935027920   -3.26371478657146   -1.20149781043197
C           1.04341354672498   -3.11397081649611   -2.18369247282021
C           1.00153156583245   -3.85260326170719   -3.33119812820653
C           2.16327196659097   -3.94894472181821   -4.12942593846684
C           3.34651623604642   -3.26204953031244   -3.72797497451955
C           4.49518420025536   -3.34779087841414   -4.53821386353437
C           4.45382428208854   -4.09109324453096   -5.68503898732561
C           3.30201515484978   -4.77706634913044   -6.09463745028256
C           2.17671092460227   -4.70137321581682   -5.32203219973525
F           5.55025533996161   -4.17696250439398   -6.45762115311644
C           3.36163412519383   -2.51116215308971   -2.52958975266405
C           2.23054509012769   -2.45137709782384   -1.76214541873811
C           1.96287526616939   -1.77687460650998   -0.49416267881230
C           2.93249355487562   -1.44570359154770    0.41473374076117
C           2.68274926295333   -0.91655002190042    1.69200028099458
N           2.55515250215253   -0.47666281451080    2.74574146379028
C           4.30430682273356   -1.67632230035986    0.19007154455068
N           5.43551562205719   -1.83516332834717    0.06896420053367
H           4.67696881387127   -0.87518663928945    3.89005961483273
H           7.67623918390019   -2.98127299443409    6.07541523555990
H           9.41451641674461   -2.21496003405305    4.47593047133620
H           5.29084438392502    0.43480942418787    1.90691130799569
H          10.03858060832269   -1.00301317489168    2.42817153939313
H          10.08246576876306    2.48609547664012   -1.58412160452484
H           9.17710256527751    3.72485486178940   -3.70632741718954
H           7.10035598879815    7.97862970923652   -6.34309877559807
H           5.89121427118566    8.72874387405854   -5.25768736995665
H           5.46061221686758    6.19225473739359   -6.92125142259280
H           4.80300666899508    7.78775733647121   -7.30439200914388
H           4.26171105817679    6.93684190708559   -5.85252531609202
H           6.02940398006558    6.02673519023909   -0.60609821006003
H           8.33347860622698    3.63244574395160    0.96365648734361
H           5.34510734450595    4.23890756752641    0.84600114946768
H           8.31981322188858    3.09083904786667    2.91031839814249
H           9.03900476877651   -0.24973054506321    7.06383949645403
H           7.42615638770625   -0.53295969759904    7.78951194209835
H           9.15712774141126    1.95561372551127    8.22337492516572
H           8.93461505566784    0.64900983267950    9.39270863828060
H           7.56368134354201    1.66884019162014    8.94186159607881
H           3.82207962300515    2.06996072725113    4.75442222905133
H           3.68348043277096    4.53317809669965    2.19059145504156
H           2.56349690970938    1.73935740407147    2.73527911566401
H           1.69158325471624    5.28636011231201    2.88779593828986
H          -3.94150230462564    7.28928068512550    1.36804770223548
H          -2.66181488391299    8.36903012022506    1.99975239385379
H          -4.39320410122550    6.48628119801389    3.68532391551338
H          -4.58121037658824    8.24105720376555    3.59008003238360
H          -3.12162179399904    7.55052221521183    4.30832156254942
H          -1.78604681848953    2.40070046560470    0.82651575268146
H           1.50528042699798    1.02780288502461    0.51620436877230
H          -1.25272268007005    0.37326886876031    1.67615336116263
H          -1.35060527818802   -1.55276175729413    0.43469087733906
H           0.09306061888564   -4.35373230689474   -3.62955095619963
H           5.40025902451501   -2.83487362795454   -4.25254983355665
H           3.32864214484353   -5.34736995200359   -7.00948578499819
H           1.27733546029189   -5.21993005796699   -5.61791311891640
H           4.26502335211184   -1.98826237285428   -2.25763221397583
