130
 SCF done       -248.533275845963          0.000923512027
C          20.78706831746171   -4.52123789866476   -3.27439947208723
C          21.74546006928956   -5.48011454929797   -3.45167497452762
F          23.02092065495720   -5.21138639232362   -3.11679818701808
C          21.45327238845835   -6.74747641818745   -3.97303513467556
C          20.16254696155804   -7.03891591850005   -4.31748854173169
C          19.13446807756565   -6.08816791278772   -4.15482277530536
C          19.45293492595567   -4.80360556768398   -3.62543535899106
C          18.43986767393890   -3.82933081058802   -3.46238296374656
C          17.15362317015824   -4.13643226343932   -3.81133273993019
C          16.83735426614622   -5.42795282409041   -4.32453067559274
C          17.79630522791447   -6.38249340184922   -4.50180967545392
C          15.38623405921845   -5.50732765221209   -4.58208745105400
O          14.76304645335276   -6.42368176114620   -5.06936122284242
C          14.82866282856360   -4.23221669259480   -4.05608171280094
C          15.93040803068913   -3.34006714571787   -3.78764742506689
C          15.87395924543978   -1.96815541765871   -3.79594582257592
C          14.69473484011520   -1.25528423870868   -4.09137338308261
N          13.75929263586841   -0.65467361564584   -4.38164850989038
C          16.99555449149394   -1.13648393358336   -3.61748633013503
N          17.87671547159746   -0.41783949518077   -3.45771789268429
C          13.48326516510778   -4.12303578761650   -3.85412095544454
C          12.76223191557116   -3.24356896588581   -3.00736149282834
C          11.40963010465368   -3.03856815432329   -3.19060130812939
C          10.61832689711303   -2.18727590083134   -2.43093268571087
C          11.21111265629601   -1.37393454811906   -1.35877170658774
C          12.49516673417404   -1.47124829079432   -0.95138189950921
S          13.63940644740241   -2.53026907892558   -1.65547688255275
C          10.16413110183111   -0.53562136084912   -0.89051975424042
C           8.99478702325196   -0.80647017764539   -1.60522976710667
C           7.91236834591826   -0.00304848998093   -1.18051509568636
C           8.28113945884716    0.83810134559533   -0.18066463574643
S           9.94396574334478    0.69039888550078    0.28922948661208
C           9.24956772472928   -1.85519019488190   -2.55220673970420
C           8.22882658719344   -2.38807488880667   -3.37676556668685
C           8.22929417436244   -3.55629100790331   -4.06529678804766
C           7.13561608832790   -3.99646807058739   -4.85628447178474
C           7.05569344986961   -5.16239830057791   -5.57202693743392
C           5.83770934741242   -5.32802292631862   -6.26827117420909
C           5.44013570723526   -6.40823222393796   -7.08556897939293
C           6.26419621860058   -7.59209134438230   -7.21352737095579
C           6.95772770951687   -8.23784423278096   -6.22933434129068
C           7.65453447371787   -9.36875872174485   -6.70580707330083
C           7.50850827441037   -9.60070338229438   -8.04306113818949
S           6.47853368899338   -8.39920180429392   -8.74371659639722
C           8.10882276222024  -10.67678429935592   -8.87023553883398
Cl          8.60417149338029  -10.36650872181765   -5.67068456405563
C           4.21917471951325   -6.27459800345514   -7.73523333276405
C           3.35767509949390   -5.16442358722975   -7.55494592221899
C           3.72598192697789   -4.11492199171025   -6.68733910815862
C           4.97578242810393   -4.21520960384343   -6.09102767577178
S           5.67699933918453   -3.03520022431897   -5.02224373418319
C           2.83063532560288   -3.00156809702466   -6.44684011031606
C           1.47900143633315   -3.03861104608399   -6.25606841151631
C           0.92013123496856   -1.75563792371483   -6.06950904113586
C           1.82310065888643   -0.73400373665821   -6.11823141671274
S           3.41400785583271   -1.36054413721974   -6.39074417995134
C           1.58894739868140    0.72500538993152   -5.97535853788783
Cl         -0.76648525403983   -1.52007054791761   -5.80553738225671
C           2.18879552741565   -5.26896444730305   -8.34274150008764
C           2.12409074577178   -6.41475296234657   -9.08506744313249
S           3.53219053990511   -7.43263819322151   -8.83898810349458
C           1.08779624786343   -6.82015621220346   -9.98198332226798
C           1.21353785562864   -7.90817778397969  -10.81006851872482
C           0.23563739322351   -8.34708866935938  -11.69886308632524
C          -1.04878425224411   -7.65504104867914  -11.81724269975821
C          -1.38447853764821   -6.55676793494678  -11.10309959968679
S          -0.35517752827028   -5.82227215731003   -9.94622339124316
C          -1.77525722351474   -8.37553980971010  -12.80394604534978
C          -1.00513849117090   -9.43537430674795  -13.28956442697203
C          -1.71926293461829  -10.21541711639940  -14.22555631947112
C          -2.96975689285689   -9.72599216937876  -14.43387127196655
S          -3.33983366629844   -8.31157255917030  -13.50868760091542
C           0.27466579576915   -9.41822946008749  -12.62002576988068
C           1.38984108171223  -10.24865127955436  -12.82431727011403
C           1.59689178737663  -11.09443766845513  -13.88149355919010
C           2.78640436554305  -11.82818773975526  -13.98342654925939
C           3.25875210516129  -12.61927260033903  -15.00145316073270
C           4.70536803966057  -12.95033546764084  -14.99831162642937
O           5.48120523021170  -12.79857636429529  -14.07805000626552
C           5.00386372007777  -13.44261001428903  -16.35652976967747
C           6.20596774508316  -13.78004442792022  -16.90610999652936
C           6.25723820376146  -14.17693351072231  -18.26165844842807
C           5.05374313929726  -14.20703043816631  -19.02341303448716
C           5.11166460270142  -14.58706248089458  -20.37821663157218
C           6.31654830457731  -14.92189942841987  -20.93027659285024
C           7.51030217613967  -14.90305795891046  -20.19715449785494
C           7.47192453661505  -14.53439910669334  -18.88094333664320
F           6.37412830386359  -15.28471695561386  -22.22609161554210
C           3.82007975108122  -13.86187677244977  -18.42236953249108
C           3.79385800980186  -13.49378996478231  -17.10503724860095
C           2.68519077412868  -13.11506467496298  -16.22584110991102
C           1.36467539408196  -13.37879743738458  -16.49918085730791
C           0.30298540760812  -13.26331187601349  -15.58483381267913
N          -0.61639427395590  -13.22993081047326  -14.89542932532501
C           0.90091684536790  -13.90183743723593  -17.72327043768226
N           0.44979368601616  -14.30787223979870  -18.69857550312032
H          21.04930922265396   -3.55453115086155   -2.87372273830772
H          22.25086629512734   -7.46371948852851   -4.09090277974515
H          19.91259613152987   -8.00861868800183   -4.72106174024663
H          18.70487628159032   -2.86630772326579   -3.05500849296066
H          17.53877218691827   -7.35205612369393   -4.90111490137209
H          12.88930978291378   -4.87890878576276   -4.35980087538975
H          10.97104897105454   -3.53162044300704   -4.04606682562450
H          12.89188478896307   -0.88557605856227   -0.13705446872024
H           6.91915528875042   -0.03976080602838   -1.58964044080018
H           7.67220548314752    1.55796361457427    0.33044587143467
H           7.32233924854391   -1.79441647872998   -3.41710418649313
H           9.06387515021308   -4.23936746432274   -4.01335761847686
H           7.86584865220670   -5.86665930979358   -5.62083501225813
H           6.93868448113193   -7.95372464098161   -5.19345971883740
H           8.94801378694990  -10.29102175242007   -9.45030428564432
H           7.37715643220695  -11.08037227664574   -9.56712547936085
H           8.47219454760096  -11.47525774213126   -8.22754388582277
H           0.90195715914188   -3.94323571662777   -6.20343860835375
H           1.85617296162259    1.24805033874330   -6.89333403537004
H           2.19645280654333    1.13346413838062   -5.16881674627034
H           0.53980302041006    0.90901822594921   -5.75807223868736
H           1.43601682112690   -4.50338463828829   -8.38870770629703
H           2.14964406176164   -8.44775434490398  -10.75406841148290
H          -2.33455646282879   -6.05884412507434  -11.21445390658497
H          -1.36464857462426  -11.11712025136408  -14.69043145951565
H          -3.72469356086516  -10.11850754156952  -15.08644990725166
H           2.17980129967034  -10.17676240599161  -12.08595076387184
H           0.86774579898303  -11.14074335272342  -14.67213593866217
H           3.50632137121653  -11.68669305293326  -13.18140425509828
H           7.10929804473692  -13.74123752834351  -16.31583225423383
H           4.21132049698391  -14.61638537090619  -20.97193431761456
H           8.43134159901386  -15.17852909528916  -20.68597768270823
H           8.37885290698911  -14.51131373582549  -18.29545319577845
H           2.92838875181618  -13.88874667216415  -19.02793489238782
