100
 SCF done       -201.470296386455          0.000764153785
C           5.13812275525007    0.91313044941230    8.69945601028138
C           4.49348706573574    1.94776480231472    9.31850325065243
F           4.61573549776210    2.10238946492813   10.64980001735900
C           3.70087574429398    2.86633877285648    8.61750058249158
C           3.56587139558159    2.72565622016104    7.26409122087752
C           4.20889955103266    1.67761548653648    6.57456962454097
C           5.00829196951096    0.75197112915956    7.30657455566483
C           5.65338178364830   -0.31552468474689    6.63888513399804
C           5.50535328038910   -0.44586265275171    5.28532691651952
C           4.71987798063081    0.49285746295842    4.55523895510858
C           4.07973788584017    1.52639410791654    5.17512955246684
C           4.75260385172003    0.14429372980301    3.12114902042752
O           4.16401323448779    0.67954452229952    2.20951640082887
C           5.71799500345259   -0.98389256307954    3.01734225816234
C           6.00455828554232   -1.45150680303481    4.35269566531978
C           6.40673355610090   -2.71937178492885    4.69546790294350
C           6.57436746896302   -3.75572075520841    3.75588813701757
N           6.66599939710238   -4.63326047842904    3.01999728831418
C           6.59325502943309   -3.15180145983319    6.02231733833950
N           6.78064554159645   -3.54591190309044    7.08441905923754
C           6.19787724312932   -1.35486427272850    1.79521797482318
C           7.36878606240282   -2.09418954421171    1.48298907501332
C           7.47633314876095   -2.79322256879034    0.29912654359404
C           8.55081428901642   -3.60088350801319   -0.04732897370311
C           9.72170786313077   -3.72681005866315    0.82364136655228
C           9.87198532621930   -3.06881879540807    1.99387374495162
S           8.69115148805644   -2.01609828879486    2.64654481302467
C          10.57653432335306   -4.65625266089036    0.17180566426513
C           9.98275972470180   -5.10579700857287   -1.01276409530535
C          10.82187489691305   -6.01190588730571   -1.70258988584786
C          11.98542355002683   -6.22738632782172   -1.03607496683996
S          12.12207385549253   -5.34531203930667    0.44722258658073
C           8.70826215361856   -4.45631667533998   -1.16382142133370
C           7.75326795397120   -4.62653960925158   -2.18931229971351
C           7.72382554649377   -5.66321881943543   -3.07097323596898
C           6.74039371054812   -5.82888407430173   -4.07254047894758
C           5.77816226851486   -4.93233475228720   -4.51851335095087
C           4.96581680760328   -5.47862159811747   -5.50553011013787
C           5.29470688660163   -6.81312486428810   -5.81900523266135
S           6.62850519878852   -7.37441337784713   -4.91223991658893
C           4.39030004366221   -7.28315029528822   -6.79655889354969
C           3.49652738514961   -6.24319939183649   -7.11956256899276
C           3.83622467659715   -5.07347191777148   -6.32728977362682
C           3.22773879720178   -3.85225144267410   -6.35310109122710
C           3.64358901192918   -2.79265404070398   -5.52065380410609
N           3.98872630888372   -1.93466326819053   -4.84242224125280
C           2.15046804483884   -3.57245402788062   -7.21907853790904
N           1.27921927861503   -3.34371947643732   -7.92898687779801
C           2.53532756852957   -6.61622835679121   -8.05354630876687
C           2.67468126931731   -7.93878119022979   -8.44718114994819
S           4.03655526001261   -8.72294326965513   -7.64726962058220
C           1.85803118411255   -8.67660742677647   -9.33044099971424
S           1.98818259220016  -10.41351645028102   -9.40526361262575
C           0.68770464668167  -10.56640119920713  -10.55951544001329
C           0.20750263240116   -9.30798951359616  -10.87496056205781
C           0.85430331784297   -8.23509935907202  -10.19584879926532
C           0.32990341749616   -6.98076587860016  -10.58757032533418
C          -0.66901719984727   -7.10360920975320  -11.50608612466020
C          -1.44484476468173   -6.03426026380747  -12.14242788258350
O          -2.32613245200018   -6.21804705263923  -12.94389458598003
O          -1.04864853271146   -4.82563224702964  -11.71965097145922
C          -1.74562969338741   -3.71853083044220  -12.27314217731208
S          -1.03365711119934   -8.75327473066692  -11.95118105469117
C           0.25109889078557  -11.83340596184545  -11.01203320583281
C          -0.79314038552812  -12.10554697654672  -11.88121589032780
C          -0.96166102729423  -13.47623067146001  -12.07255660106113
C          -0.04208820351214  -14.25154218358295  -11.35173660528008
S           1.03512857412191  -13.29609186679592  -10.43440040520171
C          -0.31007201100721  -15.62473768166726  -11.60726176666789
C          -1.39800392264770  -15.71290542608132  -12.48496137619782
C          -1.84666444063923  -14.37284100030720  -12.81004317474988
C          -2.88146937029878  -14.01824746074845  -13.62474411339382
C          -3.22590523448389  -12.67118304806287  -13.86517571957331
N          -3.51533907136344  -11.57962606155827  -14.06300631225959
C          -3.67973734747854  -14.97699308550525  -14.28339563666191
N          -4.33333093420419  -15.75314310917068  -14.81761832556650
C          -1.73719335916829  -17.04597880331405  -12.78720676637451
C          -0.91730070455434  -17.92376509685888  -12.14658524991952
S           0.28747711454375  -17.16031386517098  -11.16077599019551
H           5.73698616023615    0.22190651335717    9.27165890504893
H           3.21556933571324    3.66239855809224    9.15954489417256
H           2.96037674773887    3.42097327781700    6.70238179718414
H           6.25653483953153   -0.99981221663814    7.21453012749969
H           3.47989098319718    2.22089714040389    4.60624541675894
H           5.63148690134897   -0.98132767660465    0.94724090131742
H           6.62008810420899   -2.74995848326979   -0.36038452603073
H          10.75028647806748   -3.17034598008093    2.61164725371775
H          10.60183845255399   -6.47446528710395   -2.64690502551735
H          12.79817055593470   -6.86386677972514   -1.32689309756148
H           6.96027713938387   -3.89313097203554   -2.23113546881074
H           8.44889075696432   -6.45799181904902   -2.98136437073045
H           5.69146094960436   -3.92959211235658   -4.14344946789952
H           1.74887199336328   -5.97735599051017   -8.40558132469328
H           0.66332845870309   -6.02267053971619  -10.23687309228104
H          -1.34903326722683   -2.83641809433477  -11.77764063567678
H          -2.81766436177362   -3.81568401580273  -12.09049928368734
H          -1.57656116453992   -3.66474957321052  -13.35068232873658
H          -1.39098463274625  -11.33795229241819  -12.33643237691271
H          -2.53892635798747  -17.34391154008559  -13.43774283253753
H          -0.94006089550241  -18.99426731081262  -12.18748161503282
