115
 SCF done       -228.148247792489          0.000390956404
C           7.79772038852686    9.89923006915476   -6.19686150443908
C           7.15021047745456   11.05302467252129   -6.54181479082562
F           7.80167646089054   12.22679429567725   -6.46166029051877
C           5.81907307751749   11.06565508558012   -6.98049077740413
C           5.14002486473361    9.88226124140161   -7.06712171475900
C           5.75871776138013    8.66270826562404   -6.72349116466046
C           7.11449802854462    8.67078611308152   -6.28246017039814
C           7.76083282282180    7.45877748056382   -5.94429559273311
C           7.07082982421004    6.28136757436560   -6.04229647017175
C           5.70978424708720    6.28104478142747   -6.46550621641491
C           5.06415605574584    7.43508028235172   -6.80461167664736
C           5.19342423239908    4.90012530574484   -6.44844749562537
O           4.10260727020394    4.50478860496098   -6.78763392382628
C           6.28977585119883    4.08196144643811   -5.85156968816602
C           7.48197409969204    4.90011454306023   -5.80953852843914
C           8.77497888182052    4.44455802012016   -5.83607784764936
C           9.11373526052209    3.07733443345091   -5.90166960076814
N           9.42067202869727    1.97518290399170   -5.99885007174181
C           9.90150053481432    5.28900642899108   -5.89549819183710
N          10.84950392032659    5.93536457771921   -5.92367314448186
C           6.01176604992732    2.82538171976032   -5.41086503540521
C           6.71729826727548    2.00467256432185   -4.48657557591431
C           6.54050354054629    0.63811518158370   -4.48152512931926
C           7.20399549595236   -0.23854175756105   -3.63120232786704
C           8.16868593081360    0.23701436041788   -2.63858154930169
C           8.44570241256418    1.54329767913047   -2.42156593539266
S           7.72874673159882    2.82076478588668   -3.30202169975757
C           8.67960431285560   -0.93493113816535   -2.01930322775259
C           8.08661300715888   -2.07416722365122   -2.58038150484594
C           8.54853082757185   -3.26040313979834   -1.96225656112772
C           9.45916589769805   -2.99446127217497   -0.99044161028446
S           9.79538269761836   -1.30938805584279   -0.77297369573010
C           7.15534635322675   -1.65044960901073   -3.59114032572025
C           6.31730708413681   -2.43313613160252   -4.42026103661250
C           6.45070787362976   -3.77102315705235   -4.59789421196647
C           5.63490554554525   -4.64889844553793   -5.37646962574441
C           5.64268853938246   -6.02016790907813   -5.03047564423864
C           6.40483585129232   -6.71314124353622   -3.97190714712916
O           7.19537629603272   -6.28579551777076   -3.16662407675431
N           6.03729040812441   -8.06747231195415   -4.04528685676847
C           5.09508683747168   -8.30043607722196   -5.04856265899230
O           4.59854087215743   -9.35856761591596   -5.32989756536361
C           4.85112621427113   -6.97414155975581   -5.66568340922467
C           3.99124512141294   -6.64595897224663   -6.69505500734292
C           4.00228340018832   -5.31358663471189   -7.08803189255502
C           4.79777319744805   -4.33411749686068   -6.48713801914678
C           4.72748818111966   -3.04313755798127   -7.19532835351280
O           5.35256961698991   -2.03749350721931   -7.02519236899454
S           3.51285314361120   -3.13953066438536   -8.52917544034681
C           3.16332648140455   -4.85864511435167   -8.21740023544368
O           2.37811737595996   -5.50846923442366   -8.83903791976819
C           6.58881633357616   -8.99820403404336   -3.17558700571380
C           6.35015099669077  -10.31729911060120   -3.21023512196787
C           6.91756889184738  -11.27736764908791   -2.30918173039728
C           6.66112920786922  -12.61774767225843   -2.46722607841380
C           7.15619060764042  -13.63623206464571   -1.65150972877997
C           7.92796703572681  -13.31048441652948   -0.44611835088407
C           8.31510885435626  -12.05968624822848   -0.10841210980623
S           7.93982075222089  -10.66243523948255   -1.02471504049399
C           8.15330669622171  -14.54915195825555    0.21483928346617
C           7.57361273785286  -15.58122965820372   -0.52026631950051
C           7.78831734878766  -16.84390671743336    0.07277513275550
C           8.50566300162090  -16.73778037193210    1.22236114170903
S           8.95177769336863  -15.11581435055712    1.62659142620060
C           6.97159320203024  -15.03347443223196   -1.71169838180192
C           6.42446576300858  -15.86599948164306   -2.70938706890628
C           6.15552183181642  -15.55521660828279   -4.01183689103179
C           5.63262107045592  -16.44837350174384   -4.96739905541652
C           5.55163235358441  -17.81766336880364   -4.98795539376968
C           4.56263882512821  -18.43750862454737   -5.90821643916914
O           3.94606474512163  -17.88163848150306   -6.79079822119851
C           4.45942451811862  -19.84772062119166   -5.48628959839791
C           3.61469277828654  -20.82007085150841   -5.93528014992898
C           3.67896609426478  -22.10860825227158   -5.35839916170352
C           4.62082872145089  -22.36025003822999   -4.31927213953712
C           4.67581631513649  -23.64466193689593   -3.74424812215357
C           3.82997590269406  -24.61909330637967   -4.19574407930413
C           2.89821377871765  -24.39192300047208   -5.21710004877761
C           2.83068046683618  -23.15016546224364   -5.78544344714819
F           3.88226053306882  -25.84783373921757   -3.64723814278970
C           5.48955830578147  -21.33319199052262   -3.87979397341652
C           5.41395667216265  -20.09623087905320   -4.45946822547304
C           6.19065847770919  -18.87426820477076   -4.24462832924223
C           7.42448726350498  -18.83665599581833   -3.63840830892318
C           8.28638431738467  -17.72465781112102   -3.67767664660621
N           9.03719812219262  -16.85607148997801   -3.70446279124222
C           7.99935053645736  -19.92007666245000   -2.94812331176484
N           8.50087627560126  -20.74971841039524   -2.33141456316528
H           8.82463669374806    9.92690975237964   -5.86753964575470
H           5.36067153330524   12.00676032547752   -7.23974877748338
H           4.11396176801491    9.86651525803954   -7.40242433632273
H           8.78484846642196    7.49280157460917   -5.60722364547260
H           4.03577538884485    7.41218968283235   -7.13264595861113
H           5.07420101686407    2.41546275158227   -5.77589149075100
H           5.88594387033269    0.23223164359322   -5.24090082490041
H           9.14441112957892    1.87408000536465   -1.66930540545905
H           8.23160079844089   -4.25980058094632   -2.19659897511064
H           9.97267846312024   -3.69909548136128   -0.36599617251354
H           5.53482700434643   -1.89345947219550   -4.92778368448684
H           7.23100240771059   -4.27271227976488   -4.04835672058228
H           3.36166040735690   -7.37119979566959   -7.18397348391926
H           7.25329492823516   -8.54028929290989   -2.45384366381914
H           5.68752346013662  -10.71918443825275   -3.96203773374477
H           6.00170394638606  -12.88241838562330   -3.28061036150832
H           8.90516270869646  -11.85524903723829    0.77107098195656
H           7.44214062681937  -17.78354077671683   -0.31824658324028
H           8.81453172739011  -17.52885859981950    1.87717169671790
H           6.22018272217501  -16.87747143048757   -2.38046004091218
H           6.31626167276694  -14.54643240201573   -4.36002237762351
H           5.14624558202184  -15.98454443451444   -5.82213359641914
H           2.90568154501774  -20.61020323298230   -6.72203575239708
H           5.38347474269602  -23.85717589708197   -2.95811873448500
H           2.25634849958686  -25.19929263075941   -5.53206053351215
H           2.12113624126965  -22.95006126133053   -6.57424239389749
H           6.18819596757811  -21.55281998992961   -3.08803028424343
