110
 SCF done       -208.436115336107          0.000635205205
C          20.79634834556812   -4.29692616536534    0.11213971460600
C          21.66832225492357   -4.94328701572643    0.94348248052130
F          22.95473874857389   -4.54957452652737    0.98981885298474
C          21.27570690283988   -6.01170314436293    1.76048627448919
C          19.97281755501013   -6.42536300948395    1.72699407710899
C          19.03137103439200   -5.79503104179597    0.88824915335763
C          19.45142909644736   -4.71129656759107    0.06335799598260
C          18.52748081922854   -4.06994965839431   -0.79515289240556
C          17.22895235651643   -4.49839128781254   -0.82090624684561
C          16.81009980236799   -5.57211135406904    0.01746505856879
C          17.68166460190082   -6.21328776499894    0.84876777837834
C          15.36652031108229   -5.80978483891468   -0.18122258170815
O          14.67682503958861   -6.67125231098587    0.31768278871514
C          14.91508210401553   -4.72167594877437   -1.08782515925215
C          16.08508997748080   -4.06614022594804   -1.61845496533623
C          16.15954697207670   -3.39627614238328   -2.81548360921695
C          15.06899771015978   -3.29026311567474   -3.70135620629881
N          14.21090182897854   -3.24108263195094   -4.46358779789228
C          17.34593680784242   -2.84188225780989   -3.33135316114727
N          18.28247126179406   -2.35690738481392   -3.78548912665495
C          13.57931555407138   -4.47486500231292   -1.23138441519725
C          12.92174510536734   -3.29743061309047   -1.66555423038409
C          11.61565690952022   -3.33827063972017   -2.11060596004782
C          10.89955979352195   -2.24625576542531   -2.57838197024878
C          11.48356902163342   -0.90242799621529   -2.58359088244586
C          12.72372976999739   -0.61074062138538   -2.13497673578421
S          13.80829646098446   -1.77981967760993   -1.51409486801085
C          10.48070290344909   -0.06151901393579   -3.13413491830579
C           9.34481473757161   -0.81338338489284   -3.46006489356765
C           8.32671094040921    0.00451474332278   -4.00611359124806
C           8.70772748736690    1.30568074455177   -4.07816074334492
S          10.30894400170048    1.60581776236431   -3.49266147598560
C           9.59266734875770   -2.18928518494840   -3.11985605894720
C           8.74909410026762   -3.31181899801204   -3.28662123949596
C           7.52939970458257   -3.30827282465253   -3.88280022072525
C           6.71459644803954   -4.45601467538373   -4.07431977910082
C           6.91237812065131   -5.75800154076265   -3.68628340166742
C           5.88391252232156   -6.63429884086585   -4.09476746815388
C           4.86288535809426   -5.95954994274517   -4.82240983145238
S           5.21055212082417   -4.26339818991290   -4.96364717306298
C           3.76898462722196   -6.60943237938302   -5.34384696486655
C           3.67867618500262   -7.98845906912581   -5.14609444106733
C           4.69613417511688   -8.66492723045342   -4.41918603027558
C           5.78527173769651   -8.01378815373075   -3.89019547451915
S           4.37117082048611  -10.37550249487099   -4.33544140521305
C           2.90354588573704  -10.18146963787422   -5.28662244368622
C           2.67930642963145   -8.87144815301949   -5.61340056556473
C           2.13580277716751  -11.33141506282247   -5.66090736833274
C           1.13262820311233  -11.27800275730365   -6.60276814923025
C           0.40027506210953  -12.37512671954235   -7.05018604452326
C           0.56503496460499  -13.68827396321755   -6.41992351901764
C           1.49466671237798  -13.96652792237897   -5.47599743438638
S           2.61169313605897  -12.81948490642182   -4.87470709834757
C          -0.41116712794882  -14.53160835194893   -7.01784459258220
C          -1.12678531592913  -13.81297771829916   -7.97175761524416
C          -2.10181466002216  -14.60585973085912   -8.61414883707800
C          -2.10212057487077  -15.87867593984411   -8.13657048295952
S          -0.92420734954579  -16.16835375159884   -6.90253573875088
C          -0.61473946699524  -12.46294791615446   -8.03636372883572
C          -1.08562795724247  -11.53690551249654   -8.98016147372051
C          -0.54591801748710  -10.33084947034364   -9.35249480819946
C          -1.12921115005430   -9.55480676698486  -10.35946619441789
C          -0.71982638192111   -8.33135215225629  -10.84186382212968
C          -1.16207307141659   -7.89839458805954  -12.18748034584670
O          -2.03304257687790   -8.40030171523052  -12.86583024441506
C          -0.28470650953078   -6.76204118357595  -12.54341069450274
C          -0.20521885805080   -6.06346747448887  -13.71169254658521
C           0.74812304189984   -5.02534901604890  -13.83125274209385
C           1.60394928032465   -4.73308277731765  -12.73032237069407
C           2.55550282747652   -3.70315332931715  -12.85828085154744
C           2.63642961669666   -3.00630862628078  -14.03168988005736
C           1.80401578471859   -3.27722932188432  -15.12518596756546
C           0.87472420552420   -4.27489841407060  -15.01734217836909
F           3.54569464968746   -2.02012616833559  -14.15501605093567
C           1.49187645343369   -5.46911455496808  -11.52674865952883
C           0.55977301661651   -6.46547414075441  -11.43598113894447
C           0.20384718799601   -7.35830291157606  -10.33441788658974
C           0.54631498691112   -7.14475082199015   -9.01785677469258
C          -0.02752003105373   -7.82185377074229   -7.92986163557186
N          -0.45533689846759   -8.31032629172657   -6.98004669212727
C           1.44727904263382   -6.16276376309538   -8.56916409182774
N           2.19543424450140   -5.41890278555459   -8.11206100677182
H          21.13456233035022   -3.48012981060251   -0.50617148722928
H          22.00795503840617   -6.48349693887369    2.39635041166709
H          19.64645431420743   -7.24643752201478    2.34751365237306
H          18.86843503133285   -3.24844086860340   -1.40540348355714
H          17.34788257459056   -7.03184556374638    1.46880413309079
H          12.93114348649996   -5.27723995501916   -0.89121952552797
H          11.15453603071625   -4.31646986268346   -2.13723706392057
H          13.12432194731491    0.39080932736298   -2.13892354086155
H           7.35767490334425   -0.32621730282480   -4.33049872640143
H           8.13697139541300    2.13438684525887   -4.44926195889877
H           9.13696750251221   -4.25201582389445   -2.92046518733589
H           7.12913645220906   -2.38790787198651   -4.27744656201671
H           7.76884462555914   -6.08945770940342   -3.12765048422125
H           3.01679792839667   -6.08303802351014   -5.90977568892938
H           6.54948354833306   -8.54451998925847   -3.34497704750296
H           1.81587002866605   -8.52646144229895   -6.15040725292640
H           0.88629080602032  -10.30451259932009   -6.99360842298411
H           1.60426967936938  -14.94970975436703   -5.04612554562336
H          -2.77051026692774  -14.26414185181519   -9.38309594431533
H          -2.73401187451125  -16.69173102697888   -8.43636697311043
H          -1.98202095382325  -11.84594321922032   -9.50656642497525
H           0.38360586963872   -9.99882396933874   -8.91949519327555
H          -1.95466889810362   -9.99681163214044  -10.90914823165033
H          -0.85972492535090   -6.29777936041668  -14.53788628759369
H           3.21145972589570   -3.46548094925226  -12.03525005375997
H           1.91373130912291   -2.69492058233522  -16.02629247047463
H           0.22238953575895   -4.50263713278222  -15.84704861664525
H           2.15593180880282   -5.23065193942700  -10.71047260231006
