108
 SCF done       -212.021518518848          0.000582273071
C           7.45602276206316  -11.77161690770500   -9.30185676625406
C           7.15953380434610  -12.34979579030109  -10.50489905465409
F           6.12261509651192  -13.20712540967996  -10.59570199271129
C           7.90467831600725  -12.10252224802056  -11.66487393898530
C           8.99927421362364  -11.28819150645477  -11.58236041038648
C           9.38530867052376  -10.71328495127415  -10.35480070130427
C           8.58942743417113  -10.94054552764865   -9.19444651602702
C           8.97030163505658  -10.38687534904253   -7.94883309722277
C          10.14422120906742   -9.68866775450633   -7.85563025165175
C          10.93974152913948   -9.48018377693851   -9.01792862441178
C          10.56893045517773   -9.95204629484721  -10.24292110392566
C          12.15757309919380   -8.74216130822282   -8.64501787386048
O          13.10574601734240   -8.46159612865429   -9.34124167148631
C          11.98302793700552   -8.38482581770264   -7.20574853386780
C          10.83131657493727   -9.09898802080048   -6.70599461441484
C          10.57425837383097   -9.41682608211954   -5.39524440330425
C          11.36299126391291   -8.98480008875267   -4.31282794728429
N          11.99871932639684   -8.67358670231843   -3.40846285907572
C           9.56096892630474  -10.30457593902340   -4.98615341140714
N           8.77208535352635  -11.04432669072447   -4.59891111157358
C          12.89364100342970   -7.52682477271766   -6.66215542638912
C          12.83125811699631   -6.69232820916526   -5.51667538343121
C          11.66131484880863   -6.18095190989078   -4.99160288794196
C          11.61033655619637   -5.22070607173120   -3.99133647101016
C          12.81936736577261   -4.71337724171176   -3.34344929008786
C          14.07394836106561   -5.10209912025765   -3.67247488300989
S          14.41385078276278   -6.21731269339172   -4.92052341937745
C          12.36792659940157   -3.74588544379034   -2.40551721532206
C          10.97638494858870   -3.61337527697589   -2.48396899971095
C          10.49024888020557   -2.65814264078103   -1.56227906224863
C          11.49645514562714   -2.09889164792098   -0.84111525611317
S          13.06915464041101   -2.70419442669038   -1.23722748860197
C          10.48319324996016   -4.52927200146674   -3.47531863184690
C           9.16834318062370   -4.73602955450955   -3.92546368532103
C           8.09316496223177   -3.91985737928656   -3.72711548996425
C           6.82040456955470   -4.19784256497600   -4.26612450735676
C           5.72042506014845   -3.22625326384912   -4.28777534766396
N           4.63081560282871   -3.65050318035494   -4.85194364621871
C           4.89535579374044   -4.93633283877448   -5.22953304553690
C           6.27326901312309   -5.31677242726247   -4.88148271103997
C           6.49012264650042   -6.68907882542822   -5.24273695573672
S           7.88266762989522   -7.57923900613671   -5.23188987079766
C           5.21627381384483   -7.14510749306918   -5.74173413736573
C           4.27578638737928   -6.02031868316544   -5.79707404010161
N           3.08764227090906   -6.41196330926410   -6.34188099073355
C           3.22652370256482   -7.67135567067433   -6.62208332094450
C           4.53278841590210   -8.23182320109435   -6.23792542332513
C           4.85418092722011   -9.62171016830777   -6.25456131791607
C           4.25038257488239  -10.49649938888158   -7.13148609565352
C           4.43726455280492  -11.87265861985480   -7.11204007143492
C           5.13653158599228  -12.52738636756478   -6.00827429526358
C           5.86900535727426  -11.85011915632262   -5.08833522353362
S           6.01124834647733  -10.15018564065650   -5.04976704281194
C           4.89306729175326  -13.91859469997693   -6.18044589168062
C           4.11708104836087  -14.12724563582886   -7.32617318403908
C           3.86312919993990  -15.49677848355368   -7.55627815016474
C           4.43039949324534  -16.27446160831006   -6.59771439181794
S           5.30066251310790  -15.38723942680996   -5.39024724809943
C           3.88079604351400  -12.86275931054626   -7.96473313572238
C           3.37482386077585  -12.68064765595571   -9.26409070134618
C           3.78415706767077  -11.65323198639757  -10.07517417960346
C           3.47976995389201  -11.58739387254223  -11.43823145186364
C           4.17374872613325  -10.90324831874877  -12.41129195709119
C           3.99142297412103  -11.31957369202224  -13.82094216114111
O           3.07639822839363  -11.96671367742739  -14.28045645579832
C           5.19464113550397  -10.83371319214915  -14.53274909048553
C           5.56577865756504  -11.03519305548879  -15.82938456300799
C           6.79782611370416  -10.50874368500333  -16.28129111377623
C           7.61868859800654   -9.77868623312877  -15.37429484515255
C           8.84818261955952   -9.26116765736177  -15.82854721312025
C           9.24236743498249   -9.45612199081079  -17.12265249827905
C           8.42873126560007  -10.17631950985105  -18.01885602746125
C           7.23134101583773  -10.69241231467295  -17.60814853341371
F           8.84030916414553  -10.35312715964802  -19.28264775737596
F          10.41277983534025   -8.96238145522795  -17.55128981458103
C           7.19964866035192   -9.57553089901798  -14.03891436012980
C           6.00462185365200  -10.09775776164057  -13.62303895722273
C           5.31100886260669  -10.02573928607955  -12.33634578646305
C           5.65430149975855   -9.16060285563147  -11.32042046499808
C           4.79646145316143   -8.80287066169725  -10.26613515127787
N           4.11510971681637   -8.42127457638052   -9.42245250452292
C           6.87825986803982   -8.47303544640132  -11.24455549426718
N           7.88482708102616   -7.94112793295270  -11.08429777328168
H           6.85195451301496  -11.98282204969372   -8.43249781636143
H           7.60828514935433  -12.57176670229393  -12.58993357702262
H           9.59893566169058  -11.09374530277060  -12.45863636995519
H           8.33170385910263  -10.54129776933282   -7.09360714693472
H          11.18523475906756   -9.77131561039337  -11.11023121407533
H          13.79128924727229   -7.41097205535394   -7.26633717791617
H          10.73726541269819   -6.50922440199535   -5.44848265383644
H          14.95029145002004   -4.71224266208138   -3.17883271137769
H           9.45754598178748   -2.39840446367311   -1.41998499306849
H          11.41670100709377   -1.35019187003369   -0.07732547437797
H           9.01040565752207   -5.61493634407401   -4.53407425146449
H           8.20153850568877   -2.98510537183052   -3.19552578810408
H           5.78013340547543   -2.22700871138925   -3.89071445455044
H           2.41931777970094   -8.22593121148453   -7.06383648810897
H           3.59035548306663  -10.06760751654730   -7.87237712274618
H           6.45737961186717  -12.34260126033299   -4.33057770016859
H           3.29221020328310  -15.88689649278818   -8.37876533696658
H           4.39717551372461  -17.34328761399523   -6.51586156542864
H           2.76074550145714  -13.46791361479636   -9.68100008530385
H           4.51411941066033  -10.96556379978998   -9.67953102183894
H           2.71963768144574  -12.26220010941795  -11.81757510162712
H           4.92993202734356  -11.58947895109316  -16.50275501027346
H           9.48088734308159   -8.70214670733503  -15.15671414505865
H           6.61937384577387  -11.24126773995731  -18.30669995252223
H           7.83958086090065   -9.01660713571057  -13.37523546592646
