96
 SCF done       -184.351167697299          0.000517815390
C           8.69085972969365    6.85300143293419  -12.24081828176053
C           8.88202202978578    7.16196190006186  -13.55890624939990
F           9.00740111661747    8.45082926822126  -13.92559006646504
C           8.95458957881645    6.18194151695709  -14.55773131452760
C           8.82959526371816    4.86709823195784  -14.20390997788306
C           8.63103520424018    4.49188766775210  -12.85964731406688
C           8.55850216095920    5.50412228781889  -11.85879055884483
C           8.34965367280851    5.15280323760288  -10.50412418869927
C           8.22291968723990    3.83349742107137  -10.16638314864075
C           8.31110016355102    2.82428069734888  -11.16894434769393
C           8.50395448116360    3.13536669091122  -12.48351457804110
C           8.17244516618387    1.49752377718450  -10.53735322453335
O           8.14306068190006    0.41358350961563  -11.07632903043658
C           8.13375377553131    1.76536756373477   -9.07503426432907
C           7.96371499855721    3.18514811557755   -8.88413705717638
C           7.38895366596735    3.78693590930900   -7.79140655496766
C           6.85921643591766    3.05812879511180   -6.70803818464286
N           6.37118023978906    2.48343084859469   -5.84128388932958
C           7.16997367225279    5.17331079470261   -7.68421125268222
N           6.98707326749181    6.29794420700006   -7.54198237228908
C           8.31060569332589    0.73311042246205   -8.19921463979890
C           8.72075225763424    0.75605719237284   -6.84264444260036
C           8.47724912103750   -0.31944249054273   -6.01299666290836
C           8.81953045414697   -0.38291519564061   -4.66991535157982
C           9.54175086022354    0.71310780608217   -4.01824820332341
C           9.93826697303249    1.84071438202208   -4.64758686964422
S           9.63573960477896    2.16320633248454   -6.30081558883727
C           9.70134292911528    0.30413267037866   -2.66777337290991
C           9.11667320697941   -0.95351852830698   -2.47247428505630
C           9.28164255649886   -1.39752928822238   -1.13895565512715
C           9.95595311297501   -0.49178364179156   -0.38509858939540
S          10.42496474887010    0.93451071252881   -1.24726724461206
C           8.55252429517034   -1.39595687636637   -3.71890239810443
C           7.84284104807491   -2.58711840249853   -3.99949279155512
C           7.41301847289388   -3.49413390694764   -3.08621730725116
C           6.67168239108529   -4.66432163507527   -3.40544650741600
C           6.34094367643804   -5.19079714840344   -4.62713286474117
C           5.55447918539773   -6.36189688379935   -4.55053242031606
C           5.27782788051144   -6.73577283877978   -3.20648689604399
S           6.02299847757551   -5.63181804766814   -2.08691963968372
C           4.50212465401669   -7.82641320451132   -2.88579047336134
C           3.97318175801566   -8.58236202032213   -3.93257047869847
C           4.26358766942480   -8.21827277302189   -5.27524169430034
C           5.04093932794667   -7.13030893751217   -5.59714581191552
S           3.49626739040069   -9.30075407693155   -6.40451697807151
C           2.77764848173793  -10.21187305836345   -5.08604863984842
C           3.12692938017987   -9.71591263674816   -3.86353817467544
C           1.91691980888308  -11.31006230522724   -5.37684122649237
C           1.60603366210684  -11.81795568510081   -6.60531061958580
C           0.68585267037428  -12.89178247775822   -6.55862725678564
C           0.29087809225969  -13.19595317929705   -5.22566247864282
S           1.08630031768678  -12.15001071264675   -4.07882354939427
C          -0.61454470732740  -14.18679710474987   -4.93126433220585
C          -1.15889022343107  -14.91347497542122   -5.99528050332680
C          -0.75365096760899  -14.61632426634265   -7.32721811190877
C           0.15453530127026  -13.62329575425517   -7.61981720651491
S          -1.55916446201805  -15.64532388655032   -8.46930232394229
C          -2.44625158041072  -16.45578664871898   -7.17322633107380
C          -2.11262547033058  -15.95174869265237   -5.94113467520822
C          -3.34670010963402  -17.46845266900685   -7.58283888123168
C          -4.21248397932354  -18.24577919460324   -6.87791625680817
C          -4.51853484460515  -18.30724749785493   -5.45246729449231
O          -4.02284720421870  -17.66121543097856   -4.55431440088870
N          -5.51067358730869  -19.24998413307178   -5.21020033017446
C          -5.99378401629934  -19.92351375645391   -6.28759264661617
C          -6.96621394166278  -20.88999212956791   -6.30635616007075
C          -7.66960961431976  -21.38164405371827   -5.19274824769594
N          -8.27979449752925  -21.82396926589730   -4.32647352271564
C          -7.33497345314590  -21.47922231565966   -7.53433242063032
N          -7.64182244442634  -21.96223860200522   -8.52797509343097
S          -5.20582460163607  -19.40752767661078   -7.75623131647935
C          -5.97130876532836  -19.46602470252401   -3.85943477856077
H           8.63620109777479    7.63441180161124  -11.49902546884000
H           9.10681694686826    6.48535066213728  -15.58136957846896
H           8.88193792777153    4.09384686343763  -14.95560381747788
H           8.30369980359873    5.93693864316296   -9.76485023218693
H           8.55787806826237    2.35689246493901  -13.22978303616336
H           8.18603620594269   -0.25428476146574   -8.63446690311491
H           7.93071321970642   -1.14304255431288   -6.45241699054424
H          10.47771277393383    2.62878791660847   -4.14616087705303
H           8.93856848637837   -2.33447649085771   -0.74130116091493
H          10.21794950468764   -0.56942238156905    0.65199673091020
H           7.60230496524020   -2.75704276196667   -5.03957135490741
H           7.59280667870050   -3.32668862898067   -2.03586910976644
H           6.64742791698278   -4.76071047175437   -5.56325345935134
H           4.29740618929708   -8.08973818340371   -1.86030871287257
H           5.24290247821397   -6.86719536187704   -6.62317990362041
H           2.78196892953470  -10.14593898912125   -2.93957454809159
H           2.02061972424306  -11.42926983940220   -7.51868877906244
H          -0.90903057298102  -14.40209617381302   -3.91677054983906
H           0.44611551714738  -13.40833468370791   -8.63533204044388
H          -2.54306777952009  -16.31367189528051   -5.02630299614536
H          -3.34787232644770  -17.64154591049527   -8.65391445684008
H          -5.40363475682855  -18.78801682045216   -3.22147836771724
H          -5.79280882012830  -20.49601702244454   -3.54986988369692
H          -7.03539416081266  -19.24479010300018   -3.77380470105344
