112
 SCF done       -223.278083067122          0.000651039820
C           4.88700796388734    4.98278788818545    3.49331429666046
C           3.94006006144222    5.44919830963077    4.36222987517313
F           4.31569122009230    6.21576893053017    5.40177918996831
C           2.57670691202081    5.15874641142964    4.21561987962398
C           2.17577345231587    4.38017196012063    3.16592782240878
C           3.10998660548201    3.87192060942255    2.24006131159783
C           4.49187404250257    4.18067535369899    2.40521801993445
C           5.44740525227795    3.68973989877144    1.48461279855108
C           5.03228015681131    2.91442455769353    0.43621957578488
C           3.65222556857209    2.59293380892391    0.28836714410990
C           2.70790324413870    3.05888914436610    1.15715388180985
C           3.48290388340728    1.71040417832800   -0.87956369463911
O           2.45443971626464    1.27924132507959   -1.34763510073334
C           4.86753788570141    1.40161777115438   -1.34386461987431
C           5.77362192967670    2.30158647991484   -0.66543142320552
C           7.01065538556116    2.70542955993720   -1.09654164136718
C           7.61000361312643    2.27058237977812   -2.29496150740282
N           8.13002742122612    1.97116658248368   -3.27336149672282
C           7.79494038077265    3.67094626622433   -0.43187158630237
N           8.47356355321955    4.44374733697170    0.07751318509877
C           5.04413353157739    0.34581521748168   -2.18903137214550
C           6.20507804510473   -0.40030853027662   -2.49241672593848
C           7.39385092461339   -0.48505087176973   -1.79934533412347
C           8.24836986016274   -1.42152444001142   -2.45422890429701
C           7.47611839632943   -1.91528604357819   -3.59454664091888
C           6.27001917369206   -1.32903148492144   -3.62519498274354
F           7.94676237057748   -2.81675496435576   -4.46218192987915
C           9.53956109125083   -1.75957903422114   -2.12254496651223
C          10.39808926972309   -2.69779187899171   -2.75488819771871
C          11.62214142558799   -2.70005461507396   -2.11383254062891
C          11.56720260853223   -1.72034440425180   -1.02004351917573
C          10.33844581523433   -1.18682729850216   -1.02935078558065
F           9.87174617104323   -0.26022543733265   -0.18634648692399
C          12.71409441837365   -3.52544316083919   -2.45009347847778
C          13.94286615657947   -3.47449597476267   -1.85894178428770
C          15.02056833612663   -4.32695741197679   -2.17660310522829
C          15.05192071437509   -5.42787404075442   -3.02852570962947
C          16.30061515263942   -6.03029550574472   -3.06312323177657
C          17.25158841059045   -5.38478892304695   -2.23934519200473
S          16.58558945062864   -4.04688563231733   -1.41649312001215
C          18.47999212173853   -6.06641492613285   -2.34913783941994
C          18.31399748470605   -7.15876806332178   -3.23280241573783
C          16.93976269332863   -7.16654250451368   -3.70877685626240
C          16.36782365024323   -8.05168511728096   -4.57379957702167
C          17.08786247821121   -9.12670456401832   -5.13769743294298
N          17.67099354230215  -10.00019248940668   -5.59655194445473
C          15.01385132654213   -7.95040497231181   -4.95865186678702
N          13.91304406755866   -7.86437860327896   -5.26692054875800
C          19.47387972120186   -7.89974354027221   -3.40183338940660
C          20.53833990739358   -7.38513328798756   -2.66699451674631
S          20.07250068824414   -5.95746342790266   -1.74858216789167
C          21.86090965388130   -7.86958535857159   -2.61002046909175
C          22.36315571541070   -9.00886784178145   -3.20788099945174
C          23.75062817078908   -9.10436241338389   -2.92051700021810
C          24.05765969925646   -7.93043778860163   -2.09274453821429
C          22.94925207648345   -7.20273583710227   -1.89200711898332
F          25.27274036697815   -7.67216148181903   -1.60396963736764
C          24.63971290590236  -10.07757239903425   -3.32163973354524
C          26.04636561170953  -10.12384171324122   -3.11477025993429
C          26.55022829642858  -11.26985652166705   -3.70005323691862
C          25.43070969597531  -12.00965702339105   -4.29278002471402
C          24.31819036744838  -11.29422945417541   -4.07502375991592
F          23.07598718360632  -11.61765845897503   -4.44903568490737
C          27.89032464383778  -11.70628873708652   -3.78405494318064
C          28.97063981407100  -11.01002776514926   -3.32473887995278
C          30.28837122351772  -11.48442800460038   -3.47153979237035
C          31.45069189418478  -10.81166031585867   -3.21912683687915
C          32.71787512269602  -11.57300083429107   -3.04548963987176
O          32.90516803861210  -12.73574782784223   -3.32353887129234
C          33.65729408403087  -10.62482981305786   -2.41803384006209
C          34.92261700798210  -10.84817350572329   -1.95723776177639
C          35.63849236658816   -9.78414251781070   -1.36458388802396
C          35.02035252064520   -8.50459587126603   -1.25309133835770
C          35.73697389498603   -7.44902673640635   -0.65677641366529
C          37.00706209658856   -7.67253648189795   -0.20265951205421
C          37.63260482195400   -8.92268633891600   -0.30415826571747
C          36.95043758661625   -9.95895647100628   -0.87847072190783
F          37.69389956470444   -6.66508341392875    0.36531066784448
C          33.70872342229338   -8.30129918785225   -1.74257896323014
C          33.03996792224306   -9.34364859713144   -2.32474049789362
C          31.71964768906676   -9.41820897317527   -2.94891194926888
C          30.99462908185581   -8.34026022903976   -3.38919578925015
C          29.87774481551872   -8.42134878163209   -4.24773455746281
N          29.00091093289527   -8.41345869487437   -4.98836639924694
C          31.35108175344201   -7.00008841895929   -3.13155994844995
N          31.58278036860540   -5.89308408159351   -2.93576981242171
H           5.92750328386744    5.22971415235908    3.63531309464526
H           1.87538671561491    5.55484509463527    4.93277151345390
H           1.13127567687616    4.14231468262213    3.03187778934287
H           6.48692876934951    3.93127386279327    1.63978031838242
H           1.66651218572440    2.80837167868163    1.02127760259132
H           4.12392996829636   -0.01789983166156   -2.63927418391888
H           7.63367250223211    0.01230495311167   -0.88031482492047
H           5.48812473411830   -1.47200413328553   -4.34495823560921
H          10.13137036032152   -3.30481356851644   -3.59755355177002
H          12.36263753341410   -1.48987480855832   -0.33972596783285
H          12.53723462542308   -4.23841635047814   -3.24360974772866
H          14.13484090208037   -2.73136269034757   -1.09795781935118
H          14.19448404839619   -5.76627755967296   -3.57978533452686
H          19.56883026011755   -8.76765028884422   -4.02760174268551
H          21.81123237449340   -9.70935565548728   -3.80155207525325
H          22.85085552517148   -6.29597172228821   -1.32720742575595
H          26.60987758136622   -9.36517686849911   -2.60994676032946
H          25.51716036602933  -12.94601641371775   -4.80846107741651
H          28.06296007092219  -12.64513874695792   -4.29588968672867
H          28.81288723657756  -10.06694761041009   -2.82382656097018
H          30.41481224157446  -12.52448163992024   -3.75604414952739
H          35.37323467805427  -11.82541874015225   -2.04495860667446
H          35.28807215863845   -6.47232892903489   -0.56524130457885
H          38.63655066590997   -9.03938721779343    0.07205222689898
H          37.41121610738140  -10.93116115516562   -0.96809657499807
H          33.26391176464151   -7.32461542413295   -1.63690584401446
