100
 SCF done       -197.637960100314          0.000684152142
C           7.89221351556037   -3.85687871239843    8.85651035265054
C           7.07541758450984   -3.78331709806755    9.95058105113216
F           7.61160013215214   -3.85073301425802   11.18254061163058
C           5.68573635249357   -3.63820189584002    9.84278846186851
C           5.12311975487853   -3.56639209698418    8.59875434060290
C           5.91817912260607   -3.63557657262141    7.43653294850117
C           7.32971573531650   -3.78645014676862    7.56748011029399
C           8.14706711213020   -3.86942529314043    6.41553031875466
C           7.56887910740302   -3.79647666888276    5.17806826657598
C           6.15884871634809   -3.62814278679251    5.05261647484173
C           5.34628511209814   -3.55559377509543    6.14672094642537
C           5.80227008893689   -3.54404722821750    3.62323747981507
O           4.70057218453469   -3.45652035297810    3.13096395539448
C           7.10431320863341   -3.52597643425395    2.90065753172057
C           8.13996518863606   -3.89101664906475    3.83830214021198
C           9.33231602004726   -4.49153614374882    3.51905113914567
C           9.67216923861334   -4.84424929578534    2.19755730040527
N           9.93497699137506   -5.18528343999355    1.13268236999629
C          10.28016184176759   -4.90810239253543    4.47309422700296
N          11.08950429335362   -5.24575353935506    5.21391788710666
C           7.14244740034706   -3.12577588361340    1.59859994268723
C           8.22931127716704   -2.62712343769415    0.83287647666707
C           8.16777835672934   -2.61395121966975   -0.54420009659992
C           9.16629678557783   -2.13447996438108   -1.38367229025076
C          10.33872248786277   -1.43482791985947   -0.83836118861347
C          10.59377484487756   -1.30522168501830    0.48220276026341
S           9.58812858776203   -1.93269508680489    1.71492409227816
C          11.05153976755243   -0.95259463149268   -1.96812526401473
C          10.37840727584073   -1.32073317849590   -3.13844471120789
C          11.04467137330973   -0.86899452690967   -4.30025974258150
C          12.17402614415846   -0.18248061350330   -3.98987467900298
S          12.48089861499964   -0.05887550710867   -2.28774387777904
C           9.21786923993586   -2.08598348616401   -2.79105331106777
C           8.32898857346213   -2.66186673463207   -3.74315838216595
C           7.58411371672022   -3.77229492529508   -3.54782143095855
C           6.66405641247257   -4.32674425670753   -4.50130158529362
C           6.18440701610566   -5.64148004331472   -4.36543907731068
N           5.32141090832684   -6.17610465130125   -5.19518947606025
C           4.88568982642622   -5.41435035265124   -6.20348271580576
N           5.27250802257937   -4.15667664688363   -6.43595592365800
C           6.13876132615601   -3.63003518938092   -5.60361292474837
C           3.91402331430879   -5.99401348182251   -7.08417285788872
C           3.24199098969649   -5.38093624204117   -8.12211729428987
C           2.34440655602851   -6.25627345927308   -8.73269708332171
C           2.35376548024253   -7.53826892054160   -8.14706516812245
S           3.45247802359451   -7.65843865830970   -6.84695692579632
C           1.40693679956271   -8.34902143249653   -8.82528047528674
C           0.79754308775634   -7.57491333028320   -9.83276550310658
C           1.36067713166969   -6.23494886287226   -9.80148744483680
C           0.99858564799653   -5.18231820743353  -10.58966664866790
C           1.59605727133513   -3.90916031645556  -10.47817805461108
N           2.07889189770560   -2.87239914389422  -10.40063780988422
C          -0.00765569908556   -5.31187760882063  -11.57028354537599
N          -0.82580969016985   -5.43192104214932  -12.36468733668597
C          -0.18065081229233   -8.26836103832023  -10.53211609737564
C          -0.32987278713127   -9.56989265540441  -10.07395550251989
S           0.79498306671209   -9.93423917038127   -8.76966792616163
C          -1.19913212415336  -10.57838476965303  -10.54352054611225
C          -2.33518670490528  -10.44573030163247  -11.28354063235849
C          -2.84656199717247  -11.63312094053340  -12.02809147567827
O          -2.48766226882584  -12.77934375335959  -11.88618917713550
C          -3.82195170270750  -11.09540633001289  -12.99330362025838
C          -4.48821688130075  -11.74200258091773  -13.99433586983754
C          -5.36134892922996  -11.00732871868770  -14.82728976692521
C          -5.51938927075517   -9.60693030589269  -14.61167079768851
C          -6.38421114576076   -8.87902277142007  -15.45168110990087
C          -7.05499167352257   -9.52962027549775  -16.44965450481061
C          -6.91475645290811  -10.90568520853194  -16.67663324047199
C          -6.07734714025263  -11.62703392695657  -15.87213322569202
F          -7.88356471606507   -8.83748209868988  -17.25163265299867
C          -4.82042549296514   -8.96406897960729  -13.56344115767685
C          -3.99296700016379   -9.70033782075597  -12.76000947975540
C          -3.18799298368898   -9.32006707242392  -11.60160031357096
C          -3.41428737235873   -8.21197522901032  -10.82709909128615
C          -2.79274894592613   -7.97437728472441   -9.58616396907992
N          -2.33420993453646   -7.75303886669965   -8.55695253426135
C          -4.37396135902862   -7.22360627045489  -11.13213386368721
N          -5.14328137616689   -6.39486302692550  -11.32625825762698
H           8.95791508298071   -3.97275008465506    8.97759152821991
H           5.09173294939337   -3.58641883675163   10.74139864597365
H           4.05483537753985   -3.45448208137760    8.48998125624984
H           9.21299181634898   -3.97878902854226    6.54022642440993
H           4.27916451746926   -3.43871152247620    6.03108948776750
H           6.17811445188615   -3.11727747869875    1.09859506455031
H           7.26998048541823   -3.02085696335107   -0.98844220653275
H          11.46601194244863   -0.79337961120892    0.85774454517569
H          10.71161415690434   -1.03935113086392   -5.30782674600583
H          12.87175324367645    0.27316875337274   -4.66497898442656
H           8.31909488303296   -2.18160726657303   -4.71348353935302
H           7.70580643864067   -4.34225657753761   -2.63642919734800
H           6.52155028042429   -6.27658827612556   -3.55498245324719
H           6.41214377040869   -2.60280871655656   -5.80756708479893
H           3.41329647634225   -4.35452418662223   -8.38933849122265
H          -0.73539781934110   -7.87391351068151  -11.36389802963364
H          -0.89758767390302  -11.60334144413136  -10.34959189377774
H          -4.35079004604131  -12.80155477143060  -14.14970145564322
H          -6.51871118819373   -7.81904163957727  -15.30337076306590
H          -7.46947383602017  -11.36429934110430  -17.47978687273222
H          -5.95280848853307  -12.68805994726730  -16.02785961035260
H          -4.94799088798086   -7.90162275697707  -13.42980317186081
