108
 SCF done       -217.826213208795          0.000787891603
C          11.42149491472647    8.87559375885966   -0.01787531848396
C          12.09266712205398    9.71184157756652   -0.86667280726334
F          12.99352715074673   10.57478620091487   -0.36966738212529
C          11.87875602565607    9.70657196516105   -2.25271345284319
C          10.96660782907163    8.83501514173594   -2.77833140614464
C          10.24722833479250    7.94875881454943   -1.94926420254556
C          10.47812097629009    7.97053768995291   -0.54139859644456
C           9.76674353977538    7.09456790290127    0.31101290855204
C           8.85773602987703    6.22475341009311   -0.22808794592499
C           8.64282386365788    6.19572059581112   -1.63847940353361
C           9.31189066287218    7.03650273919301   -2.48350801488336
C           7.66321246958899    5.14840137633452   -1.96394324000485
O           7.18032617116127    4.86633605680439   -3.03364758728485
C           7.43137044705606    4.42690425826776   -0.66903470284728
C           7.98406825243212    5.23899254127642    0.40007971621699
C           7.58933637158396    5.23277192743519    1.70677933693224
C           6.55724841516989    4.40909343825563    2.20776030934783
N           5.66736782431793    3.82934938895658    2.64191482194541
C           8.08836696538743    6.13026272653301    2.67532430229134
N           8.46420259729672    6.84619070376860    3.48871081295485
C           6.93680236402823    3.16602148052940   -0.69026541980812
C           7.01842571324874    2.19783575462097    0.35106278892843
N           7.86349042160520    2.32793162987355    1.35960313093368
C           7.73883733847307    1.20293831358828    2.09548449068489
C           6.75670189176156    0.28651698688946    1.50566846674954
C           6.62365530032414   -0.92439745358942    2.33060757445655
O           5.93653172072681   -1.90202143271207    2.13075651363404
C           7.54666607441630   -0.65464147345986    3.45171670888827
C           8.21907587413827    0.65109397756978    3.25586622607225
N           9.06446547677809    0.91328735739773    4.28298296845226
C           8.95007414418120   -0.11056702800217    5.08964105691740
C           8.01242626719363   -1.12582217590093    4.63340127712245
C           6.27064211977293    0.91812860581459    0.38527969142536
C           5.26890316299880    0.52488011666751   -0.53936646546356
C           4.68022948662821   -0.69771761505789   -0.51384297159053
C           3.66822738970271   -1.11883920749369   -1.40711713480596
C           3.12670395602453   -2.39527928924904   -1.48797682080611
C           2.15210860213185   -2.49168543578704   -2.47510829826803
C           1.93208141839395   -1.26915962561810   -3.14563124851852
S           2.94104537365352   -0.01875424189754   -2.57361895770080
C           0.91751169661584   -1.45412006399585   -4.10870873866819
C           0.49933418055505   -2.80880998056041   -4.06572728312196
C           1.26593287262934   -3.49881738155813   -3.03926298318200
C           1.18154686278025   -4.81283578259635   -2.68876851110524
C           1.99143157734426   -5.37642757242573   -1.67866902487360
N           2.64863598887608   -5.84211353842106   -0.86338364925958
C           0.28911968443339   -5.71089048956932   -3.31503432898638
N          -0.41861228447519   -6.46005236139103   -3.81584334806130
C          -0.50005429236706   -3.08262338192651   -4.97934314701315
C          -0.86578881810464   -1.95174427240834   -5.71755122014901
S           0.06876141315040   -0.54097447309854   -5.26035553510297
C          -1.92246041428586   -1.96781451757462   -6.65254659062704
N          -2.54897693387334   -3.13094028939484   -6.85548032553209
C          -3.60294783547599   -2.86748969573939   -7.63480521409102
C          -3.67957340144273   -1.43457291237897   -7.94344833659999
C          -4.86293250147932   -1.12839935404392   -8.76953994872415
O          -5.22575119719686   -0.04710135692595   -9.17853474763157
C          -5.46998527931343   -2.45603677927207   -8.94509281142564
C          -4.67455251737515   -3.48841168667272   -8.24081840450540
N          -5.22421496753428   -4.70998314782567   -8.40753384163690
C          -6.28553444824456   -4.51130082151158   -9.15719444583324
C          -6.49534116531760   -3.13074929925398   -9.53052543913701
C          -2.58383336181197   -0.84793215087512   -7.36936757042497
C          -2.28331372942253    0.54406881156122   -7.47185833188279
C          -1.06372174647653    1.12306607756013   -7.53274697770545
C          -0.84740706949605    2.51933082058711   -7.69790202837249
C          -1.66549780777412    3.57486433192425   -7.44148301669764
C          -1.32224637430345    4.89084305480616   -8.06611841412819
O          -0.26288472923933    5.19036616317684   -8.56472989808864
C          -2.55267508592844    5.69491662472142   -7.98272727516964
C          -2.81968524341373    6.91976485609251   -8.52409715218034
C          -4.10083094438506    7.48694795921515   -8.34529421566853
C          -5.09021065162353    6.76272232456104   -7.61726082501306
C          -6.37050381803898    7.32703574112814   -7.45609554176605
C          -6.63454457579349    8.55600558578377   -7.99395481049562
C          -5.67410097764944    9.28580631917423   -8.70849986943441
C          -4.42732374910907    8.75136911233028   -8.87758347733400
F          -7.85477756080512    9.09799263273518   -7.83968848539907
C          -4.78310255754065    5.49934689680592   -7.06113706486908
C          -3.52803362014226    4.97976384196010   -7.22983537641273
C          -2.92921932779584    3.73675020996436   -6.74966300198900
C          -3.39055754729102    3.02444428174145   -5.67355392475809
C          -4.57334718862336    3.34103235491743   -4.97089070961419
N          -5.52275281425153    3.54753562630483   -4.36086778198704
C          -2.71215678781042    1.94388749811550   -5.08308489807963
N          -2.19432396811817    1.07233174142709   -4.54312241619187
H          11.60977466787936    8.90928304067582    1.04375132217355
H          12.43852396169752   10.38909255091981   -2.87223982921364
H          10.78495560786985    8.81252575815559   -3.84220448158493
H           9.96753523944771    7.12231364062079    1.37023424854976
H           9.13202894195773    7.00184928131651   -3.54759338213059
H           6.52525486047643    2.83680652720268   -1.63825106413689
H           9.52589725507590   -0.15444948894661    5.99775717673214
H           7.77745570084226   -2.03363460392545    5.15270539927418
H           4.97007398423408    1.24553697711163   -1.29021391337061
H           4.98901566176594   -1.42510007946665    0.22707408162460
H           3.44792086289049   -3.19729215616585   -0.84824608407072
H          -0.98834727897419   -4.02664972393904   -5.13976088652106
H          -6.91206109200781   -5.33980137814132   -9.43838526141137
H          -7.29919928802147   -2.76232490560447  -10.13647602764754
H          -3.16045736378162    1.15804050421602   -7.64226788712183
H          -0.17817902332839    0.50311218589302   -7.56817740812849
H           0.09773001965927    2.79876575052285   -8.15517609500245
H          -2.06330692698847    7.44865893270763   -9.08432422567746
H          -7.13280614830864    6.79501637796205   -6.90873451374243
H          -5.94013984256431   10.25100181865573   -9.10933694810666
H          -3.67167775412088    9.29419137293326   -9.42514706660604
H          -5.55453908936665    4.96809460012341   -6.52671794211660
