122
 SCF done       -266.469381862688          0.000705263344
C           8.33658048111106    9.19238779102090   -0.24244583272535
C           7.47539384368665   10.25116320830162   -0.32531223370780
F           7.89902152840610   11.40834003080032   -0.86015430955324
C           6.15089696957826   10.18070947331922    0.13031804191661
C           5.70045087256887    9.01226825180839    0.67830215202068
C           6.54565781093479    7.88849997224810    0.78818180609632
C           7.89022007144156    7.98034410394708    0.32028300706126
C           8.75819277730405    6.86995669417628    0.42406027252898
C           8.29767099092155    5.70509405184336    0.98041640039740
C           6.94785636491300    5.61541363312704    1.43177761180448
C           6.08873000195636    6.67394353536246    1.34401840478502
C           6.68256324452425    4.25798586481137    1.92993003578342
O           5.67528166588105    3.81599479716789    2.42075010608414
C           7.93299923154554    3.48513497666124    1.62197724963018
C           8.96466566906985    4.43407418812461    1.22525765959306
C          10.31382644076870    4.22061095417845    1.21551936537840
C          10.93992581291386    3.02506846189825    1.62140716760268
N          11.51176069225641    2.08733701867340    1.95613508378936
C          11.26310531377576    5.20053758923580    0.84666264307118
N          12.07682630241617    5.95085008681947    0.54617365446678
C           7.87220856130156    2.14494484232019    1.57930212114889
C           8.84188375992728    1.20220689104918    1.04972718027355
C           9.29954164022290    0.14498098409779    1.84573260661670
C           8.91834228445385   -0.00298864457093    3.26236224740046
O           8.21875668933378    0.72289175941201    3.90394772506037
S           9.69247868384991   -1.47792517599414    3.91524949109932
C          10.50793264925678   -1.86938957725924    2.36117551708621
O          11.14507464576033   -2.86472703618089    2.19421351967552
C          10.20545847019160   -0.80398679567203    1.38524352656822
C          10.73791541776403   -0.74695053638700    0.08975316688226
C          10.27862198791270    0.30429603878797   -0.71449925242095
C           9.35013703174120    1.24429763993489   -0.25753992675918
C           8.97367525051693    2.26022365538294   -1.25949223736188
O           8.18380826154076    3.15435839348208   -1.15118874777043
S           9.91076504653264    1.98344194302948   -2.75673897029600
C          10.77624180519568    0.55572265211434   -2.08175391084259
O          11.61767590094691   -0.02764829222824   -2.69196854089778
C          11.71793103231873   -1.71414769589460   -0.37751697027400
C          11.59015256187301   -2.57896316806515   -1.41723586445889
C          12.72084604406460   -3.41758134244388   -1.59255852964587
C          12.91843317006072   -4.41501974911141   -2.56928081726198
C          11.99339592965818   -4.63175784306005   -3.65730709959414
C          11.66780350336245   -5.81154832864274   -4.27252515270211
C          10.79811104122457   -5.63233378590256   -5.36464980470926
C          10.46142984359299   -4.32825259343590   -5.61112375079814
S          11.21595217974687   -3.29031456951455   -4.45862378818672
C           9.59035450618976   -3.80030932498358   -6.69108288461296
Cl         10.20865805573655   -6.93654748796746   -6.31624126543137
C          14.09374156629833   -5.16084995357754   -2.45883235704730
C          15.08279323545890   -4.90524523025829   -1.47996507677638
C          14.91767068998687   -3.85746867634437   -0.55205147923961
C          13.71132519947337   -3.16345071963428   -0.61453665363639
S          13.24409081205738   -1.86999682172949    0.44554182586193
C          15.94629791719901   -3.53753703017903    0.41091906600353
C          17.30085290873339   -3.50650568170055    0.21631658860384
C          18.00733749086006   -3.16342789319828    1.38547025061576
C          17.21411807044866   -2.93571128682910    2.47707229427268
S          15.55055606843761   -3.13588995325341    2.05933685502945
C          17.63140421710762   -2.58569635069998    3.85768237958314
Cl         19.72339757038285   -3.04191642099078    1.43242381618662
C          16.15429762040825   -5.83050995481418   -1.56054765404494
C          16.02012941441993   -6.72242354548677   -2.57645806480790
S          14.55675079810507   -6.47873179236641   -3.49129081082931
C          16.92149465918319   -7.80916846636789   -2.92094124510776
C          17.24720850654925   -8.82722365518758   -2.01322684808312
C          16.66816583741413   -8.92656200266703   -0.65783468479204
O          15.85166730474564   -8.23036219271203   -0.13810252832499
S          17.37257480458094  -10.36119319815854    0.16992345392268
C          18.35408892195321  -10.83109071441240   -1.24783103889436
O          19.08409606002261  -11.78079421557902   -1.23659185251812
C          18.09818601306080   -9.88361808766886   -2.35042484016108
C          18.64415553840939  -10.00991523099319   -3.63765820677175
C          18.32213923071027   -8.98571340489915   -4.53647375377250
C          17.50441890558018   -7.91490347269357   -4.19195305806521
C          17.34951948686956   -6.90911580135269   -5.26057396172036
O          16.81456706240932   -5.84336905667505   -5.19869729170156
S          18.17153473767898   -7.50752459292104   -6.74269378187299
C          18.76421211351256   -8.99481789419467   -5.94350099161657
O          19.40333605283214   -9.83867705078833   -6.49742825226384
C          19.51491551213893  -11.09696336277214   -4.04798048715892
C          19.30791238749158  -12.41960799581126   -3.94619001073268
C          20.46909787491308  -13.35386385328499   -4.13245768045999
O          21.52006174540159  -13.08891781448918   -4.65749234617539
C          20.05669859130155  -14.59938173733186   -3.46851640409007
C          20.79931877286720  -15.71860626875283   -3.21918615641419
C          20.21183062882923  -16.79368402721164   -2.51761528557949
C          18.85985105172968  -16.68401327716958   -2.07558690949698
C          18.28330580021168  -17.75651404729919   -1.36684230369853
C          19.02862648487216  -18.87606622702320   -1.12082030065724
C          20.35839771889079  -19.00305874610992   -1.54789389224360
C          20.93416452709334  -17.97199624735834   -2.23629219742221
F          18.48080102228392  -19.90062316613221   -0.44637615189732
C          18.11396443077926  -15.51508301964045   -2.34792014642600
C          18.70024442852496  -14.48914648918258   -3.04228110465437
C          18.17495193486820  -13.19833895968101   -3.46367672105780
C          16.85626283423010  -12.84578798731048   -3.51609380788429
C          16.36803930795535  -11.64835026349040   -4.07650072550641
N          15.90599869984621  -10.70030721686081   -4.53038987924305
C          15.80367305570870  -13.66832912609994   -3.05480940369332
N          14.91209235269480  -14.28721903838561   -2.68429260648552
H           9.34980965168391    9.28342866198144   -0.60139808570409
H           5.51766604360815   11.04876091075772    0.03752311062856
H           4.68474406016161    8.93387146296225    1.03536348544234
H           9.76448329718248    6.96359617021357    0.04788310598362
H           5.07120376267522    6.58315853030688    1.69342109330923
H           6.96349044882211    1.70693704508779    1.98382788434777
H          10.69942942703429   -2.64164527311030   -2.01418407448740
H          11.99591456629132   -6.77853001371858   -3.94010131348951
H          10.05725036667797   -3.96059344552126   -7.66334785459266
H           9.41800454339848   -2.73609629455359   -6.55677451805523
H           8.63420026673473   -4.32290386756697   -6.69325724211168
H          17.77627170098432   -3.66664077567728   -0.73371015173048
H          17.85052746059317   -3.48846439075152    4.42988759257917
H          16.84103034111606   -2.04180381625560    4.36840483547361
H          18.53263135414763   -1.97610304279400    3.83109013328703
H          16.98476889555820   -5.83603520682283   -0.87943803115312
H          20.46716421396567  -10.80378018025291   -4.48121982163148
H          21.82479363286614  -15.78015309690319   -3.55126344084184
H          17.26216686644062  -17.69435037128841   -1.02454099079288
H          20.89683675166888  -19.91003385411666   -1.32304596308267
H          21.95658408574181  -18.04645903069984   -2.57450538468926
H          17.09961824521043  -15.45313843714514   -1.98703981972143
