108
 SCF done       -196.149199092523          0.000861948574
C           8.23347158391715    4.73026783327612    6.98175503502092
C           7.83963155862396    5.32662366656377    8.14600930229215
F           8.63894388730689    6.24510239238251    8.72474056341775
C           6.61164318577390    5.04251731432596    8.75880017125402
C           5.79333589874694    4.10561048461513    8.19401330483011
C           6.15419865279374    3.45086545960728    6.99996173821877
C           7.38863197958761    3.78276937096487    6.37008174784367
C           7.73584536855273    3.19406192427586    5.13206812232883
C           6.87067032839485    2.31074243089619    4.54403738135189
C           5.65612438486793    1.95421845565714    5.19823815301115
C           5.30119806175375    2.49995768871898    6.39679212601075
C           4.89040972110645    1.02324443076524    4.34052207334272
O           3.85415399369547    0.45553926808048    4.60229181107113
C           5.62443154949598    1.00942093748698    3.05096631860398
C           6.92018009575235    1.62057223725002    3.26001275381754
C           8.03195809301884    1.42770786662766    2.48437412518868
C           9.27427120333155    2.04007377700662    2.73744150936291
N          10.29167534545412    2.54835439299753    2.89519304558003
C           8.05474347001294    0.54120315945623    1.38993830926673
N           8.13290802888433   -0.22145873969394    0.53483323947622
C           4.98929012770741    0.65389910232978    1.90346582977351
C           5.34469643382955    0.98815312306067    0.56390370308888
C           5.16560475928333    0.14097800907579   -0.52371479788788
C           4.64288193182128   -1.24484978293797   -0.56630617765387
N           5.69509012428795    0.74720262012742   -1.61279770363475
C           6.20182431569601    1.97097659952788   -1.28847531712556
C           6.79428784822092    2.86961878102079   -2.31007676349216
C           5.99678785132492    2.17334671280066    0.06267094548626
C           6.33852101300589    3.37865086549190    0.76836287855457
C           5.69178843332372    3.85766066667645    1.84873406495083
C           6.12945411510726    4.96801166020958    2.62903768690006
C           7.22155340695729    5.79189656339358    2.44886327349244
C           7.38363789061708    6.69312671617099    3.50391722653179
C           6.41495679440232    6.54484361675581    4.50816990657487
S           5.27415404765813    5.33180867255301    4.12507872095021
C           6.70801978126358    7.45634329243155    5.55533904458853
C           7.84753320861481    8.19427666235779    5.20193624169356
C           8.30215815978016    7.74952531383788    3.89348121908293
C           9.35869946834030    8.23104924798494    3.17635728048301
C          10.17963764485292    9.27366317456348    3.65374188085152
N          10.84597664874947   10.12524122623978    4.03620046025115
C           9.68697150126167    7.73094769411825    1.89910082878631
N           9.94374039605899    7.33595069973492    0.85335851982432
C           8.24801155742810    9.09192754879271    6.19471481963278
C           7.44934082055279    9.01404465369376    7.31527446942074
S           6.13611642066022    7.85873534925694    7.11485549415815
C           7.61154749151317    9.71154390864507    8.55437628698957
C           7.26207904165067    9.16503847141454    9.75928139011646
C           7.42403254049075    9.79551694982279   10.99613529834713
C           7.80446345918953   11.21585426426650   11.06066747696134
C           8.22666752493929   11.93404210149695    9.99835746411462
S           8.34011271389006   11.30686443135551    8.40445292612016
C           7.67768622315873   11.57653627573005   12.42983129242431
C           7.29447314862888   10.46007528222859   13.17348256158500
C           7.17701572446895   10.75142577699702   14.55028818704081
C           7.46234839637170   12.05397617350653   14.81008874130726
S           7.89278671349240   12.97453844399944   13.40703340546359
C           7.17626981794874    9.32601522363925   12.29399360347185
C           6.95194725134943    8.00032274704671   12.75772316103605
C           7.33724170685765    6.87093332088065   12.11737084471813
C           7.15761351354539    5.55169830674431   12.62532728254681
C           6.56725183786695    5.11844425981674   13.77914229885855
C           6.59194538264027    3.71435181169318   13.94850259964769
C           7.21452906765231    3.05114045715381   12.85874374201605
S           7.78156149974600    4.20344009049907   11.68531101678000
C           7.33922206466615    1.67363600785108   12.80884779945788
S           8.10263671244202    0.78849807655622   11.47686084916183
C           7.34520357678568    1.54462542173343   10.00343376129163
C           6.85999595195932    0.94213433191663   13.90355086529522
C           6.25466956325070    1.60198453164927   15.00148354827865
C           6.11731058582603    2.98037483581936   15.04626713459439
S           5.34794648441704    3.86943001774769   16.36839674656970
C           6.09001221223042    3.12165437031131   17.85286845605487
S           5.71465303612288    0.44283988930907   16.18928954946824
C           6.29799561143548   -0.86943252198857   15.22637796472661
C           6.86811947670665   -0.47263931289987   14.07239968965170
H           9.17819229260219    4.98707981537054    6.52798286717802
H           6.33225289608949    5.56602972398456    9.65815113614878
H           4.84478760047573    3.86727576001516    8.65060834700760
H           8.66002352288039    3.48532816300444    4.65778168383602
H           4.36957296857884    2.22857692754253    6.86994029288992
H           4.07012709560156    0.09032544594438    2.03495532824673
H           3.83607447563844   -1.37148797976757    0.15171478158410
H           5.43378256194630   -1.95130767671113   -0.31054083708052
H           4.27622803071376   -1.48583338654592   -1.56214693995209
H           5.75192705757622    0.32952277240865   -2.52836736734204
H           7.06647059958694    2.30626622572146   -3.19971461019737
H           7.68599824829705    3.35342772393396   -1.91724357908572
H           6.09027855266495    3.65156940760469   -2.59743110062708
H           7.19015878116022    3.91959578705911    0.37639318601164
H           4.79731096991775    3.36240485622996    2.20126994067158
H           7.87281117423592    5.73174504335988    1.59699156743499
H           9.10186452879157    9.74222476974867    6.13285373034675
H           6.82602983285750    8.17638165213475    9.73626451687487
H           8.54996965254856   12.95963908272709   10.08140597903454
H           6.89476348951748   10.04407109457904   15.30892439445523
H           7.45040647834669   12.55278530669059   15.75948665969326
H           6.50827978526871    7.91838659564483   13.74114771316823
H           7.87231101449152    6.94449381238872   11.18151680027129
H           6.12162603194907    5.77120879633168   14.50650026227029
H           7.34485836098610    0.77347945042135    9.23927914441213
H           7.92629298745173    2.39810036065368    9.66799454991700
H           6.32804052081392    1.83874470586776   10.23755858568539
H           6.05852773722096    3.89176843212437   18.61744872361630
H           7.11770750305285    2.85002377827482   17.63727079765096
H           5.51828873494322    2.25609126307142   18.17208893423874
H           6.17182773022586   -1.86758319699474   15.59713841257122
H           7.29073936048444   -1.13942159721751   13.34350558514824
