94
 SCF done       -189.491376855966          0.000892071566
C          12.88193165655987    1.11662303323581    3.82718011512270
C          12.80553337588234    0.74110925982855    5.14021460671126
F          13.75543334676073    1.14393043626255    5.99897275130340
C          11.76341721457660   -0.05642305925397    5.63527146729081
C          10.78635969158616   -0.47626960212182    4.77681397741343
C          10.81516488440346   -0.11753699786680    3.41272449137310
C          11.88428287691315    0.69374425177650    2.92788726612241
C          11.93754994658830    1.06271300089674    1.56341993370204
C          10.95320462267974    0.63561432318417    0.71347689696299
C           9.87815633647840   -0.16247969715508    1.20781186800951
C           9.80600958315048   -0.53793417427586    2.52024446719485
C           8.93786964105410   -0.44918507810553    0.11597295160624
O           7.94884886656101   -1.14090986625925    0.12471933437447
C           9.42990769543227    0.37412498390027   -1.03893338918373
C          10.76782898205759    0.83713981031812   -0.72053467624343
C          11.73933636323693    1.18012159843669   -1.61679334292826
C          11.57235000692824    1.10621225296821   -3.01711344906312
N          11.51900416254596    0.96948944626404   -4.15517736835234
C          13.05514973044017    1.52963858397480   -1.24350017504293
N          14.13384491872677    1.81700101061890   -0.98055833573163
C           8.57229050383138    0.67061362523167   -2.04513743098269
C           8.69898962164095    1.70464169838762   -3.01401198607147
N           9.55299897240937    2.70497222932494   -2.86875748522490
C           9.35073196684129    3.52103050608844   -3.92217973677435
C           8.28717643531398    3.00670601424184   -4.79928143599231
C           8.08669950769471    3.90976573838777   -5.94677695544048
O           7.28052805835589    3.81784952217908   -6.84562860539891
C           9.09977611534783    4.95669778092600   -5.71467363299254
C           9.83984484942140    4.68390309702423   -4.45845110841057
N          10.77051828854778    5.64334041567153   -4.23408743823227
C          10.66676393389853    6.46470040071704   -5.24722677626603
C           9.64265958838728    6.09368406452375   -6.21247696062767
C           7.85873895144824    1.83525536621427   -4.22910980355508
C           6.87242424805718    0.89583631333668   -4.65050274967210
C           6.08623276799567    1.08577840102695   -5.73163370262445
C           5.06538971163197    0.16683512707188   -6.15338564450588
C           3.97885175358327    0.59189656757625   -6.94312704498129
N           2.99867439081747   -0.20218055322699   -7.28944800402847
C           3.04207459629475   -1.46856647038934   -6.87220924799325
N           4.05990605183471   -1.99426374806088   -6.18550412501310
C           5.04900029769916   -1.20257055310038   -5.84389213701261
C           1.90655726091359   -2.31130170541598   -7.18574417666226
N           0.77018080044155   -1.77704410956531   -7.57117272610807
C          -0.08449405695504   -2.80861156967423   -7.75507235566213
C           0.57640024088911   -4.09913538893168   -7.49346092366196
C          -0.37471643778278   -5.20917034198431   -7.68447046281910
O          -0.17532663773556   -6.40269018705362   -7.59813978997407
C          -1.62598007201614   -4.51000723128940   -8.02101288598561
C          -1.39716154284965   -3.04341547796720   -8.06893024102662
N          -2.54874476178423   -2.39358766870450   -8.36983518777924
C          -3.45121133741713   -3.33122243405178   -8.49456724394085
C          -2.94403382087169   -4.67924861917319   -8.28317469203649
C           1.85956855597712   -3.79441487294027   -7.10576013629706
C           2.92062674819039   -4.65084482690819   -6.70149614191661
C           2.78849430692631   -6.00112957894359   -6.69978294522964
C           3.80492644510361   -6.88959639182560   -6.27487707618259
C           3.63550347047216   -8.22369603799504   -6.06086954950051
C           4.79790531733819   -9.14694227126687   -6.01819060054530
O           5.96208368287861   -8.85585909472274   -5.88463948787375
C           4.21949701306664  -10.49422227330272   -6.24148778993685
C           4.87956447707127  -11.69263250277885   -6.41325961488881
C           4.11639048727899  -12.83729623955523   -6.64876912737750
C           2.71181383229957  -12.75107051717989   -6.71189513057908
C           2.05226925456156  -11.53464861087482   -6.52733333367825
C           2.81308041811266  -10.40338659801660   -6.28606624321546
C           2.42223558572147   -9.01787057465707   -6.02149413623804
C           1.19102075634868   -8.60726725706364   -5.59195972639793
C           0.93076702156489   -7.33458838935034   -5.03331329291763
N           0.68115799991422   -6.35350022845580   -4.49442601831703
C           0.06136504999601   -9.45219408532765   -5.52897347385034
N          -0.87836389898585  -10.10658796578547   -5.46610592003273
C           1.95598459840102  -13.92197760411761   -6.96928780401993
N           1.34045459646100  -14.86368822351512   -7.18073433153384
C           4.75603985506381  -14.08724289495010   -6.83004527207724
N           5.29253316418030  -15.08756164215358   -6.98070502544482
H          13.70015385009366    1.72874739046271    3.48151000454516
H          11.75594625135010   -0.32004085005640    6.68094272498550
H           9.97408042901407   -1.09094183697875    5.13414612427147
H          12.75023227860066    1.68562454378691    1.22490120138645
H           8.98605651568642   -1.14595349283913    2.87209897755814
H           7.64518421254665    0.10719025277988   -2.04507621723866
H          11.30420155193632    7.32926647098815   -5.31389503924596
H           9.40588112297432    6.63524403287311   -7.10668529205896
H           6.75593648888353    0.00708589601653   -4.04531103190628
H           6.17942890115153    1.99713804047631   -6.30880992018872
H           3.91189038412730    1.61643808676433   -7.28672000420831
H           5.87067094456745   -1.67792084772028   -5.32297749661610
H          -4.46903108766360   -3.07806495452591   -8.73617647662886
H          -3.52521045397040   -5.57849831891636   -8.33488912155802
H           3.82498804856460   -4.17556985356418   -6.34948490810910
H           1.86480102098115   -6.43417473482551   -7.05855574015165
H           4.81602027955177   -6.50959483708361   -6.17755154951670
H           5.95693538942408  -11.74326496876692   -6.36838571441629
H           0.97581098630359  -11.50112566308676   -6.58759503594886
