108
 SCF done       -214.273357948681          0.000871614242
C           4.78728636197468    8.93503986840700    2.24493582713430
C           4.05237215723337    9.51899987975996    3.23961242789685
F           4.32559909617400   10.78017571459190    3.60995609514137
C           3.01171091388327    8.84828032547197    3.89864870973986
C           2.71864741221558    7.56324248238135    3.53701881530138
C           3.44551865039661    6.91174218324464    2.51852682381347
C           4.49883544842278    7.61207297250736    1.85785857055919
C           5.23623746852315    6.98348770522227    0.82799624504557
C           4.93046736503096    5.69713159138077    0.47239802405633
C           3.88800881728937    4.99518329557394    1.14949761096838
C           3.15694443254696    5.58171413809487    2.14439103133000
C           3.78695544456140    3.62865560544481    0.61640142855989
O           2.98999402015049    2.76393079612008    0.88333646810510
C           4.95670290606836    3.49805749246399   -0.31449221788036
C           5.49393466163356    4.82663908857590   -0.55282681511832
C           6.20808455364370    5.22273204762604   -1.64698785361154
C           6.62035638813527    6.55450937254264   -1.86988724472157
N           6.97423971660093    7.62337592443124   -2.08736834186680
C           6.52525066515001    4.36450770753957   -2.72194258916840
N           6.75450930940507    3.71635996626195   -3.64055126905811
C           5.40848411797059    2.27402358765896   -0.66511172580524
C           6.68544262091668    1.97110331975602   -1.22922914281096
N           7.75931192086651    2.68096107882076   -0.93409269415946
C           8.79669050756650    2.06056489321990   -1.53797764688775
C           8.34678862657864    0.85499394612029   -2.24643983341746
C           9.47621516472268    0.18189885640861   -2.91948207467399
O           9.45997992913972   -0.83427739030775   -3.57014634763003
C          10.60789999048672    1.07181480770955   -2.58861992767129
C          10.14480336238173    2.20035110591890   -1.73653978706822
N          11.17522784075479    3.03101678990088   -1.44588746182897
C          12.21357268769539    2.51511207659308   -2.05152257558832
C          11.92771052192302    1.29430791486677   -2.79163093110492
C           6.98881730949807    0.79659459081209   -2.08145190248636
C           6.09327122333618   -0.16241798258584   -2.63160352066184
C           4.76704272176856    0.02531163973991   -2.82309933740864
C           3.89501001328270   -0.93532597766393   -3.41232127435441
N           2.83034001162508   -0.51803177795465   -4.07681335454197
C           2.27844924242178   -1.61064428023322   -4.64018710949728
C           3.03690114060304   -2.81953075481605   -4.29023181994176
C           2.43349264897700   -4.01957163794750   -4.90263752863341
O           2.80147891731414   -5.16790805145603   -4.81516118693550
C           1.28692883587025   -3.45161561104168   -5.63577123633812
C           1.23055608672985   -1.98027724368553   -5.44695502891878
N           0.16719796111362   -1.45715656044168   -6.10190067595391
C          -0.42821158962359   -2.47942848548459   -6.66382534328756
C           0.21432874726993   -3.75633671149902   -6.40755276896254
C           4.05111565414251   -2.41727785837240   -3.46128704058512
C           4.93171702572050   -3.29001147202710   -2.75615084086037
C           5.55541952746241   -2.99059919959249   -1.59205889732751
C           6.37499380758745   -3.85119311970504   -0.81170455429229
N           6.59249005962130   -3.51364152363279    0.45269537630899
C           7.30801389415577   -4.51638371566338    0.99140904491566
C           7.55969423549115   -5.58199734091499    0.00601587277454
C           8.34573629813877   -6.66708473663521    0.62072678015232
O           8.67738791095903   -7.73151957595511    0.14119288157874
C           8.60397935771149   -6.15494832214426    1.97455604245163
C           7.93653942625988   -4.84812849462077    2.16642705421683
N           8.19121002891235   -4.35956561225296    3.40395149925370
C           8.96952326183292   -5.24927155525582    3.97004381359324
C           9.27828594604118   -6.38973862191438    3.12845717303095
C           7.02118017556817   -5.13859527657731   -1.17863654013856
C           7.14701930090982   -5.69661911556311   -2.48390503617421
C           7.69177141936359   -6.91951301350121   -2.68939372265976
C           7.90834132638868   -7.49514037928051   -3.96877374722726
C           8.72523838978789   -8.55573242663375   -4.20072368620533
C           8.61030329329971   -9.37649589405051   -5.43887662043304
O           8.05228960082519   -9.06845519050185   -6.46544153251879
C           9.26645836385524  -10.65649082552907   -5.10496120871364
C           9.32673929644553  -11.80606480015402   -5.83949978967647
C           9.98703581004662  -12.93371833565464   -5.30304921234443
C          10.57047924835349  -12.85034760181317   -4.00471678494194
C          11.21837466475511  -13.98213058141959   -3.47262920893317
C          11.27667113989345  -15.13106962274831   -4.21095733513604
C          10.71172055438746  -15.23243519315467   -5.48982273573974
C          10.07776121131430  -14.14416727040751   -6.02094990310827
F          11.89550169558192  -16.21299461626631   -3.70496471186046
C          10.50006287338754  -11.64504528524001   -3.26857040156232
C           9.86385888473557  -10.56290803040794   -3.81345816500319
C           9.66978155995137   -9.20629509487098   -3.31156582051808
C          10.40827367205461   -8.59977525240169   -2.33337446338567
C          10.40717895571773   -7.20881931742531   -2.08677398777836
N          10.50545990350366   -6.08210377615582   -1.89318150599969
C          11.35501898221517   -9.27634474584500   -1.53532886533097
N          12.13367555752612   -9.78464984510684   -0.86293275636756
H           5.57896378543723    9.48254516337940    1.75796829320974
H           2.46694024489743    9.36062641654080    4.67564012604038
H           1.92238867732067    7.02652029375754    4.03012751990559
H           6.03467075944321    7.53019341070732    0.35176260124473
H           2.36925308221611    5.03496509714962    2.64071808179284
H           4.77111274633797    1.43210513596935   -0.41475572441238
H          13.17750874674198    2.98788129308243   -1.97501822402903
H          12.64173818279013    0.72749790469148   -3.35527532827227
H           6.56894768462264   -1.07051314783568   -2.97981641898458
H           4.31611348548195    0.99316205882124   -2.64775345586743
H          -1.31462786150602   -2.33317280677473   -7.25637166282606
H          -0.12013555241964   -4.70658627126780   -6.77375255201002
H           4.97140809379774   -4.29342878132014   -3.15899255006724
H           5.37294467479635   -2.03659586990187   -1.11485211563963
H           9.31762463818537   -5.10295572759383    4.97792148539517
H           9.90436257891249   -7.21610386315549    3.40058009657669
H           6.88578383071882   -5.07904194074616   -3.33095569818353
H           7.97533487209220   -7.51268676536117   -1.83022350322338
H           7.34135605402089   -7.11933066670158   -4.81328098988857
H           8.87362025922658  -11.85570009487674   -6.81834025866569
H          11.66703427472321  -13.93878430308459   -2.49256375951899
H          10.78926508671021  -16.16530218620705   -6.02536068594493
H           9.63460187703022  -14.19823333474103   -7.00388205599949
H          10.94109111218463  -11.60890867401742   -2.28495919547488
