105
 SCF done       -221.804866148623          0.000455980469
C           4.57363676754772    1.56546863520663    9.67931504748511
C           3.82999912518971    1.89419425247787   10.77852512218862
F           4.44442238205668    2.10465217682037   11.95485886813300
C           2.43431776908831    2.02249471653124   10.73132842925015
C           1.79017282630947    1.81337524312388    9.54419086770959
C           2.50763490268791    1.47218965005942    8.37847359586904
C           3.92658119675880    1.34271782936536    8.44820288566143
C           4.66660635840540    0.98615136832727    7.29754980792409
C           4.00848007683158    0.76453008377844    6.11766618906691
C           2.59176960819452    0.91854600224665    6.04773590177158
C           1.85293151668861    1.25918908363898    7.14598293176901
C           2.13717575896631    0.66665767510651    4.67049892943353
O           1.00950765364271    0.64690014238559    4.23903607796839
C           3.39533718071547    0.49632908342234    3.87620317874915
C           4.49857541497616    0.34041818718898    4.81081156368908
C           5.67813349045116   -0.30343925991666    4.57214722362949
C           5.99581517469392   -0.94002147532683    3.35212700130492
N           6.26980146549961   -1.54296041378341    2.41525314867393
C           6.66991027043251   -0.50567830667810    5.55620730585349
N           7.49992839035327   -0.69162305852516    6.32577506757285
C           3.37760342641060    0.62900012616556    2.53105136348908
C           4.51721979468851    0.82220292123586    1.69042376932817
N           5.60765483074841    1.42523106510871    2.12630902794068
C           6.47180316462789    1.41981819275439    1.08400303718825
C           5.89481847415443    0.74654609735558   -0.08174030795389
C           6.85040479830072    0.75101368810857   -1.20302372278059
O           6.71180312969972    0.31003003626953   -2.32122359635164
C           8.01914792032091    1.44948227948803   -0.62578709711857
C           7.73865372946028    1.84513602125319    0.77239873327322
N           8.79931905504351    2.49990099362988    1.30742393890904
C           9.69699724142063    2.53003950898863    0.35482066855885
C           9.27311018659558    1.89443936491920   -0.88220506808029
C           4.61921542865585    0.37807903019073    0.28235140048628
C           3.59975165726866   -0.29131047351782   -0.44124739774175
C           3.84704502361122   -0.92892935482626   -1.61454454492408
C           2.86825203944914   -1.55402003982733   -2.43428954907156
C           3.28953893576620   -2.37345908706559   -3.51317127486344
C           2.35933939169348   -2.97837292917187   -4.42560537756434
N           2.80867235169317   -3.61246860226664   -5.51977555292842
C           4.09671359505943   -3.77820724536567   -5.67820547987300
C           5.02008916191745   -3.31227399139313   -4.68225048653460
N           4.60202719516779   -2.60514146882017   -3.66679815684456
C           6.40038280586147   -3.60743882389784   -4.81694468754381
N           7.50117041349334   -3.87842933967898   -4.97865270819138
C           4.54603778378550   -4.43930561170465   -6.84736639875421
N           4.90815364908525   -4.98961818884230   -7.78472357942262
C           0.96061650532013   -2.84338979634860   -4.26176870863525
C           0.53794772297458   -2.00086113981681   -3.22051555622917
C           1.47055794847831   -1.38783661983895   -2.30119871516796
N           0.82954374843657   -0.66396613906787   -1.37984061313885
S          -0.75132411111613   -0.75033829761527   -1.63906755599685
N          -0.72887226983429   -1.69976299500417   -2.92797634792177
C           0.06891582079931   -3.44538463457027   -5.19742517021021
S          -1.19127181381833   -2.50721316662036   -5.90041105456632
C          -1.45319013012639   -3.64260446772274   -7.18682468834317
C          -0.58937826820557   -4.74862874267513   -7.05247321053798
C           0.20728387040470   -4.67194581971102   -5.86359765347547
C           0.95920126252490   -5.80520420071731   -5.45787879974842
C           1.48525566090165   -6.00776398384411   -4.06717041874931
F           0.86910042038534   -5.27109672685727   -3.12896781585056
F           1.31881618889644   -7.28661291977342   -3.68095114955220
F           2.80578291674999   -5.77088525938915   -3.91831528150626
C           1.11482851748782   -6.84536246500960   -6.33890709512469
C           0.53968256078749   -6.81204639734373   -7.61119042537029
C          -0.32917680640128   -5.80579341098020   -7.97598413623263
O          -0.93963945905556   -5.74322885320341   -9.17520443139240
C          -0.62908385793163   -6.70608572718011  -10.15967873179711
C          -2.45571316453424   -3.27151616843188   -8.11859199535951
C          -3.15883935962381   -4.07372778095733   -8.95775981964172
C          -4.10696328631967   -3.60352464384573   -9.89917272434538
C          -4.49562277518665   -2.30663276128341  -10.20138988083294
C          -5.42248373643078   -2.26367923776917  -11.23935539337538
C          -5.75184893013373   -3.53442492474476  -11.73821301687426
S          -4.92084462295592   -4.78046298782034  -10.92456236879564
C          -6.68643981827287   -3.37316679401669  -12.79813662824159
C          -6.94227953258986   -2.00584164193476  -12.96678635280301
C          -6.16363614296637   -1.26043143697270  -11.99723538632520
C          -6.12140912319721    0.09239382490753  -11.82508527485386
C          -5.31690573404599    0.69570497284445  -10.83601177358547
N          -4.66425971434168    1.18594268920167  -10.03039515985077
C          -6.87819248597597    0.97625455093739  -12.62265615115964
N          -7.49084665407120    1.69825287963324  -13.26916210378073
C          -7.85730978343358   -1.75514132066685  -14.00718343356635
C          -8.26905463586923   -2.91250052250395  -14.59453902403687
S          -7.56095357682836   -4.33568321242790  -13.90426590340261
H           5.64574397519696    1.47153158105040    9.75299978115504
H           1.90103732950658    2.28313465592831   11.63173122547688
H           0.71636708919991    1.90660272850912    9.48346886643904
H           5.73914527570911    0.90421897569470    7.37391599745627
H           0.78054002678942    1.36301879479341    7.07463582410142
H           2.40180284109066    0.64307056887821    2.05749945487841
H          10.65101859487118    2.99934102230906    0.52190995993851
H           9.86050824315996    1.81687633049066   -1.77551363577949
H           2.59986125492696   -0.29204982010978   -0.03147596424523
H           4.86177245045858   -0.99335545437163   -1.98426600412108
H           1.69246793879271   -7.71010273414338   -6.05129137938085
H           0.76096739107502   -7.62006121785834   -8.28705868554791
H          -0.93681138777798   -7.70938007944613   -9.85062888766207
H           0.43791154134178   -6.70460926142142  -10.39648437917781
H          -1.19607471009369   -6.41004178426387  -11.04089945548820
H          -2.70762947413319   -2.21895025548340   -8.08913407406733
H          -3.00311494400341   -5.13975316428481   -8.93996454448385
H          -4.11246448537325   -1.44319030227394   -9.69044271785593
H          -8.19430221615599   -0.78014199303086  -14.30815771860290
H          -8.95825260133042   -3.02756809661259  -15.40695980866981
