136
 SCF done       -242.811022432113          0.000448018966
C          17.43754640955907   -1.51271971090466   -8.63093080346482
C          17.33464739809876   -1.96492705221035   -9.91687009917491
F          18.13352204348135   -2.96318980613793  -10.33357259158216
C          16.42046521080271   -1.42554360115482  -10.83264451343795
C          15.60098179960588   -0.40884334837344  -10.42861942446256
C          15.66562345730697    0.09764669845540   -9.11412873549033
C          16.59966303891511   -0.46696709619273   -8.19672876283311
C          16.67656022601152    0.01687690521311   -6.87044638625546
C          15.84911218206197    1.03460538218279   -6.47762983530665
C          14.93114777223126    1.60855786507269   -7.40512729834267
C          14.83067035685790    1.15444424662653   -8.68887001881205
C          14.20078588404726    2.71047743392842   -6.75183001275021
O          13.31382395321942    3.39520134125824   -7.20789439753426
C          14.82780503869985    2.85007180891925   -5.40820386522598
C          15.68637402979105    1.69945092303164   -5.18862522802806
C          16.08900598929812    1.20229036818250   -3.97946949128226
C          15.69108461219769    1.73738598427740   -2.73610254641515
N          15.34647511570249    2.08856708565104   -1.69909736202846
C          16.87350743058840    0.03948424304620   -3.83248390630071
N          17.52502410886881   -0.88997796901327   -3.66322205673151
C          14.62363217805740    3.96991543172879   -4.67561194801021
C          15.43135962492698    4.42712812346709   -3.57209905986850
C          16.79542576517781    4.38428027229383   -3.65594329034122
S          17.61127090124674    5.08891267594028   -2.32611589682291
C          16.08605565469827    5.42263856331606   -1.56467839633481
C          14.98784364174763    5.02801898092171   -2.33807510718231
C          13.68585348488621    5.14785815641070   -1.80345726108178
C          12.53758240614561    4.61625610448199   -2.61919695394659
C          11.90175825170832    5.70254838209152   -3.49065474422083
C          13.49187797824209    5.73167644207259   -0.55804660046478
C          12.10194343188666    5.84831344031261    0.01200089825970
C          11.85658802404743    4.78382197970595    1.08289311861173
C          14.60334519000624    6.16960163899046    0.20707892127692
C          14.68739691108300    6.73861371229836    1.53672315088339
C          15.98259186036844    6.92291239347097    1.92841941412492
S          17.16019593191662    6.47289075592726    0.76757964690752
C          15.89603261719116    5.98073462226748   -0.31272212607174
C          13.61456439733437    7.11971588773752    2.43011023297349
C          13.67669513742466    7.00082277987838    3.76843394717323
C          12.64074049708687    7.40924236775217    4.65865674063064
C          12.63974942621224    7.29379403913862    6.03394950866098
C          11.46616809154437    7.79444789060015    6.60623264271987
C          10.56830217454775    8.29192649337543    5.65588412515920
S          11.16001010423482    8.14634921313960    4.06200865183182
C           9.41600819948924    8.78306449924111    6.33595944017348
C           9.59352706104215    8.59393508692938    7.70926108287454
C          10.88395179722576    7.96780861935152    7.93150827590819
C          11.44008356500756    7.61957592813660    9.12772520407731
C          12.70934752875102    7.01157398396457    9.21817824732371
N          13.74045617722462    6.51584923761257    9.29727799423804
C          10.78330277442983    7.85089198136152   10.35416312362637
N          10.25176832501526    8.04290721403245   11.35203196188386
C           8.50103198561436    9.05662869349654    8.46629951006408
C           7.52923142190804    9.60844972713709    7.68196424068922
S           7.92155319032202    9.52033332061816    5.96551641521565
C           6.22479529638685   10.12102907865933    8.09204638649945
C           5.22469913828631    9.24035105326509    8.36002052717483
S           3.72002321498108    9.97213331910128    8.75354227148915
C           4.43213355544845   11.54029383026280    8.54512064661894
C           5.79570189197412   11.49165082924869    8.21158808247974
C           6.52317714355983   12.70082033637672    8.09917232150234
C           8.01802177695184   12.62946859680245    7.93364908948069
C           8.69449918687235   12.45935470688920    9.29609923392036
C           5.87387720933973   13.91992485048029    8.23278057251175
C           6.63847986825391   15.21481963314945    8.14410668719052
C           6.77813045953601   15.69153185879652    6.69542236624512
C           4.47841831735002   13.96143375585717    8.46870598712951
C           3.58920433479002   15.08779230852551    8.65150179887652
C           2.32930741533870   14.68778623915580    9.01833711758206
S           2.11881259989541   12.99541550898574    9.10839854140592
C           3.78732374660641   12.75860943883039    8.67856263922626
C           3.85526563745125   16.47987223210156    8.40917921586342
C           3.26458265917064   17.48960490694107    9.09457251177738
C           3.47270246227674   18.84281221214488    8.74595078099769
C           2.88171519233030   19.95887340022032    9.26116009646760
C           3.50609101495112   21.28328851419882    8.99986575260169
O           4.37210178881047   21.52528818390447    8.18865416540734
C           2.88798597431168   22.20663010913779    9.96912681611477
C           3.18289893668817   23.51602798188653   10.21612389038762
C           2.47836770770559   24.20197330859212   11.23047343576241
C           1.48300915529544   23.50810548425625   11.97811541101055
C           0.79086254976002   24.19365959995004   12.99533592799470
C           1.08483520718488   25.50617353785681   13.23984741795371
C           2.05795949183553   26.20654292301622   12.51402195791381
C           2.74077057524681   25.55564647468610   11.52452109390392
F           0.42415313505084   26.16316769119487   14.21056635138550
C           1.19416422146242   22.15253112595748   11.69520368745594
C           1.87985611771440   21.51261995818363   10.69825916218260
C           1.77229880045610   20.15364506898789   10.16720033151059
C           0.69373835734961   19.32756459932330   10.35704489243279
C           0.45006437628352   18.13335697743350    9.65185595100390
N           0.16056096469449   17.17194423718224    9.09342485567637
C          -0.37794038841455   19.62344092727477   11.22594967285023
N          -1.26911718195140   19.79782238399537   11.92826749216199
H          18.15013060908714   -1.95413704988805   -7.95182040477335
H          16.38424735525376   -1.82376431295893  -11.83420400028089
H          14.88917345612459    0.02295179526842  -11.11594397384153
H          17.39632882025325   -0.42371519983708   -6.19878795831789
H          14.12258650876932    1.59784548361141   -9.37283103514258
H          13.86222325981971    4.64268781543718   -5.05337682025308
H          17.37135303338878    4.02123057373480   -4.48644950718331
H          11.78095517818323    4.17241762585165   -1.97268098550043
H          12.91201969825663    3.81164256252678   -3.25613282968791
H          11.40439305916270    6.45117985890032   -2.87824540903991
H          11.16851228515896    5.26488746979438   -4.16409307808574
H          12.65621799765981    6.21518579920154   -4.08343994693423
H          11.35622632029318    5.73561225764935   -0.77042088375552
H          11.95677276985445    6.84321886292535    0.42894882652507
H          11.97986110419522    3.79073934915693    0.65701416723750
H          10.84639968484284    4.87186854383962    1.47661937966300
H          12.55871815477404    4.88922243833629    1.90560902460984
H          16.31233101526638    7.35306687065529    2.85396729394790
H          12.72538076790414    7.55596760846307    2.00027758312257
H          14.53663339252150    6.54611310181052    4.24098899756408
H          13.45875394522823    6.86588781999829    6.58292827933359
H           8.42952328447548    9.00028259646214    9.53727137208081
H           5.29430356772698    8.16985195930140    8.33608224168348
H           8.40333992020456   13.52194067314009    7.44603371726401
H           8.27860964409180   11.78450098218087    7.30070759664448
H           8.47608055980215   13.30599967480951    9.94298299994799
H           9.77277499929843   12.38371692842176    9.17553534705053
H           8.33805669410225   11.55845618574567    9.78861011086194
H           7.62993147511181   15.09908421565404    8.58072202059305
H           6.12084960912611   15.97157906788913    8.73561505697399
H           7.40390074033157   15.01037799101678    6.12358859615150
H           7.23016716779317   16.68054390996950    6.66485647806005
H           5.80944968391920   15.73229713471625    6.20197065227135
H           1.47657040896180   15.32678740944713    9.15756792183911
H           4.49636145688227   16.73330727143544    7.57764805886372
H           2.64590082909108   17.25953704500517    9.94854129617489
H           4.25000195614676   19.04434511599133    8.01450369402628
H           3.94619083974343   24.02289534318905    9.64490337277882
H           0.03258355910355   23.68710162875724   13.57178369880576
H           2.24646580149704   27.24147380650170   12.75163874726760
H           3.49518919249802   26.07371475052116   10.95171698628821
H           0.44134651838091   21.65296951134726   12.28381039942368
