114
 SCF done       -209.484402344871          0.000397403240
C          19.91039155979058   -9.84193026130533   -1.68867177332302
C          20.31715934829610  -10.52911042888988   -0.57883608803644
F          21.62786047798547  -10.77548464345351   -0.39559016109837
C          19.41725094695605  -10.99417305419512    0.38891324227000
C          18.08195682496106  -10.75333520417032    0.21933299144543
C          17.60730635063516  -10.05060931500026   -0.90654003197022
C          18.53892197098520   -9.58735487241885   -1.88055035316626
C          18.08468948370964   -8.89210119054899   -3.02661376846156
C          16.74542528491924   -8.66749943732787   -3.18503626195326
C          15.81926935987176   -9.11790315711845   -2.20012730473937
C          16.22874782150261   -9.79726076964143   -1.09016404681361
C          14.45462644278817   -8.72223388190875   -2.59999432845023
O          13.41159271564903   -8.97020358647278   -2.03568807749778
C          14.63141975312550   -7.89114942716655   -3.82058610802435
C          15.98861049127277   -8.04944280462826   -4.27075319524354
C          16.41975312410354   -7.94157898679333   -5.57136512317256
C          15.51849712946146   -7.75286138396849   -6.63408042207711
N          14.78543034653036   -7.69939486272543   -7.51682221785759
C          17.74655616541851   -8.16103610298227   -5.98285584109394
N          18.82131311566743   -8.30811848930613   -6.35997845619499
C          13.59327840982678   -7.08258979187039   -4.20128010020316
C          13.55303303910506   -5.86900512046442   -4.91941652065972
C          12.33801091757065   -5.22182569083895   -5.09634071580207
C          12.17296009676427   -3.94059070703058   -5.58722340335747
C          13.31878593218810   -3.11440698256033   -5.96989459949020
C          14.59777130392745   -3.54941513993316   -5.94030358022235
S          15.06647911559726   -5.10825805896193   -5.40769415248870
C          12.77051565478500   -1.85328712249289   -6.32675615775981
C          11.37623914045823   -1.87823726671413   -6.19317413991484
C          10.80785790749673   -0.61489504551417   -6.47746407654271
C          11.75429925231719    0.29950093464678   -6.81494673346265
S          13.36927630068752   -0.32045530626711   -6.80944684966383
C          10.97843072572915   -3.18974486461182   -5.75912567645723
C           9.68868388833775   -3.70779477900510   -5.54670960193613
C           8.50287952527865   -3.10018436863511   -5.83866256215313
C           7.22882287753007   -3.68139775083735   -5.62330496909973
C           6.06910100188942   -3.02000499200351   -5.98726418074326
C           4.77401143094788   -3.49455047673828   -5.81731233309841
C           4.54362004498246   -4.77961915297163   -5.14157754010850
C           5.52274220111683   -5.60594535771845   -4.71347277132133
S           7.19438702534913   -5.27695772635454   -4.87912199191534
C           3.13253889568803   -4.92640792542885   -5.05408223367933
C           2.51277666249866   -3.82222715172539   -5.63532280274165
C           1.10404764870492   -3.91404199190335   -5.58166255804630
C           0.70268905562726   -5.05969287411912   -4.97203941921614
S           2.00626540293225   -6.07091530354849   -4.44341151574227
C           3.51611129192424   -2.92032987506868   -6.13979967533416
C           3.17136425874072   -1.73652370161238   -6.82256491237428
C           4.00584126744306   -0.90337522715680   -7.50501500054345
C           3.63646437553646    0.28078792066597   -8.18532843814863
C           4.61892619590033    1.03662006092220   -8.80255282972559
C           4.41402170283891    2.19161397747325   -9.53835458188322
C           3.07461444860729    2.77929873489328   -9.63875261414392
C           1.96273733958616    2.22361448876952   -9.10544513965174
S           1.94628940660730    0.74487579513878   -8.23543489438962
C           3.24257018196212    3.99419994084443  -10.36087300981417
C           4.58600072809302    4.16401624654614  -10.69109166056958
C           4.81005503015099    5.35497753729087  -11.41518859873164
C           3.65541831748183    6.04479888857015  -11.60897537098005
S           2.25721646645891    5.28306926871315  -10.92872271676562
C           5.34319820847533    3.03561618899415  -10.20851283929268
C           6.72456520927746    2.88106112956048  -10.39249735238238
C           7.44546045519338    1.73522860808728  -10.15962638158392
C           8.83602019843356    1.65353002951463  -10.23948716778076
C           9.54464146086955    0.51776619525309   -9.89778471368106
C          10.96794849219313    0.31989891461460  -10.01649219864577
C          11.91823173975205    1.26355601359134  -10.33118613079472
C          13.30214965327369    1.00612648433370  -10.36706789822935
N          14.44271735339323    0.86996256978001  -10.39802875796402
C          11.66385758261000    2.62006055163502  -10.60776010049233
N          11.54109471288467    3.74109940647855  -10.83126904456735
C          11.25303827222653   -1.07469239915212   -9.68978264636987
C          10.03787675492981   -1.70345622247043   -9.29815508781747
C           8.94972401546810   -0.71168480095994   -9.34304439626456
O           7.81270696169802   -0.88347953917776   -8.92538738542584
C           9.98924880196827   -3.01657284921948   -8.93361074062623
C          11.18304608200619   -3.77266131170134   -8.91907231002557
C          12.40337172980050   -3.14880211675776   -9.30235693786879
C          12.41764785370340   -1.79113902547281   -9.69852936240957
C          13.59291501416263   -3.90210293883950   -9.26779046141435
C          13.57896977794583   -5.21016960189515   -8.86854080914183
C          12.37784456860423   -5.82325654488801   -8.48572801406138
C          11.20381270877399   -5.12090496182002   -8.51434292526589
H          20.63167996653002   -9.50241420030379   -2.41546826078459
H          19.79611804815864  -11.53110319761896    1.24399569766519
H          17.36881019224142  -11.10192764807102    0.95117826267291
H          18.80914027851508   -8.54882829614431   -3.74841831091203
H          15.51082892107075  -10.14193031753255   -0.36106168088205
H          12.64957544239963   -7.35501751851693   -3.73559304516040
H          11.46114818993415   -5.77279903140629   -4.78351363631575
H          15.42894481559777   -2.93503047102669   -6.24796879206949
H           9.76229041103980   -0.37242931377843   -6.42920528956391
H          11.60421941890765    1.33062984334265   -7.07096956654831
H           9.64852639672891   -4.70881304126497   -5.13571913304372
H           8.49901240673228   -2.12262171667928   -6.29599605204643
H           6.22204981230345   -2.04722806306404   -6.42823621545273
H           5.31356902361955   -6.54817800247535   -4.23205421697169
H           0.42069334920850   -3.17981741106864   -5.96817238489626
H          -0.30121721544977   -5.39119954332926   -4.79177109538752
H           2.11473931501210   -1.49395608854953   -6.81172597647978
H           5.05259247117319   -1.14616789510589   -7.59338642765746
H           5.62298925274807    0.67104297499938   -8.66069369036350
H           0.98908870186535    2.67869559694328   -9.19572379378397
H           5.76654695630096    5.68846637158982  -11.77436406916209
H           3.52563272432602    6.97787557288243  -12.12149860583617
H           7.25910173170274    3.75349969415278  -10.75150128665436
H           6.93083506485937    0.82490953028693   -9.91182548506172
H           9.37629054299806    2.52443264907818  -10.58635243621446
H           9.05407952026311   -3.47602134738664   -8.64873249880313
H          13.35818513177810   -1.35315261367418   -9.99250027086137
H          14.51558194730868   -3.42283598747544   -9.56203630633969
H          14.48909027688905   -5.78889066055751   -8.83875519353211
H          12.40070852932064   -6.85432141656530   -8.16864379309548
H          10.27311758574675   -5.58562441288663   -8.22095482949140
