108
 SCF done       -208.996507766086          0.000822047894
C           9.98030570048772    3.83798555214315    7.10879190777176
C           9.49507835454349    4.14528909417351    8.34960382669727
F          10.22713627814285    4.91621712824192    9.17456406666825
C           8.25252952013870    3.68552532841356    8.80583239779290
C           7.49520436050637    2.90020313476585    7.98165650276349
C           7.94751129466430    2.55112056809395    6.69291127560808
C           9.21353723089691    3.03065512008440    6.24674454436543
C           9.68542128188942    2.69994203109851    4.95438151852057
C           8.91792238898938    1.91019937080640    4.14330987473522
C           7.65945090596886    1.42075841743000    4.59989853101939
C           7.17545454786023    1.73332514981007    5.83693013399990
C           7.05860843639307    0.57163909057054    3.55316451373414
O           5.97486350605023    0.03178764590466    3.55989198468326
C           8.10091766765366    0.46216770866132    2.49720921621744
C           9.12330293795977    1.44164455725099    2.77589773486776
C           9.94793478064276    2.02949381624384    1.84862302833796
C           9.86528598357235    1.75012461326459    0.46968327063919
N           9.77447240770359    1.57791545241791   -0.66243852962536
C          10.88110595320983    3.03716549177338    2.15700743962595
N          11.66920055721533    3.84632591141156    2.36326133668607
C           7.98832815511056   -0.51310041419697    1.54905752868116
C           8.97809616251992   -1.10221655065905    0.72324731468116
C           8.61787172549489   -1.83089889589759   -0.39291433161437
C           9.50868677810730   -2.43134722979099   -1.26992551290536
C          10.95509104681903   -2.36731302428224   -1.05322382803722
C          11.53420053144554   -1.76727877208090    0.01036067480709
S          10.65708708861949   -0.96823323581954    1.24294061952916
C          11.52840053971915   -3.06330380952923   -2.15083347664587
C          10.52112182855399   -3.54262444673796   -2.99828781663993
C          11.06534342874452   -4.23946044024790   -4.10304940256092
C          12.42234960275349   -4.26935824206998   -4.06235132314446
S          13.10560059014093   -3.46002855879226   -2.69325595792562
C           9.24496099018240   -3.15944715211138   -2.45575958634288
C           7.94466305094464   -3.43045726384880   -2.93432350941603
C           7.63300675607162   -4.13656194609588   -4.05085825492232
C           6.31221004589571   -4.41657981230908   -4.51124633419819
C           6.11976952190364   -5.15327523250759   -5.68668939283023
C           4.85730339743763   -5.47672827028982   -6.22869302783779
N           4.92272873198636   -6.21347144589278   -7.37577696771222
C           6.12395434496637   -6.45409393214717   -7.72691687357750
S           7.37185868512088   -5.81191464974014   -6.69907374148819
C           3.66175267104807   -5.08550643414478   -5.58525987106915
C           3.84435619345793   -4.35837761927345   -4.40298390493919
C           5.11582486528233   -4.01200370121387   -3.87808923073829
N           5.06083164050399   -3.26260255347550   -2.74202035770006
C           3.86435125085121   -3.01082927481712   -2.38319568390112
S           2.60675581218680   -3.67152969744815   -3.38732730133022
C           2.37164460624365   -5.43507842464309   -6.13954953342560
C           2.17945218186427   -5.60955313198383   -7.48821370000406
C           0.97417986476253   -5.97149747929468   -8.08484009851443
C          -0.23896695601261   -6.17907822575296   -7.29734096026891
C          -0.28552605668183   -6.05885965238029   -5.95072737366246
S           1.06934602940084   -5.65569797685715   -4.98610188690901
C          -1.25165019567306   -6.50589907734146   -8.23844010272925
C          -0.72245302201154   -6.50782508914623   -9.53217973522406
C          -1.68641000662382   -6.89449884747934  -10.48949376982952
C          -2.89044070145361   -7.14861528807211   -9.91350779899432
S          -2.91264987439194   -6.93886130875438   -8.19608721784627
C           0.67657797815119   -6.15751648130330   -9.45649046448734
C           1.61319679989608   -6.02244851912361  -10.49385341954372
C           1.35549022833577   -5.96872976025092  -11.83940039549306
C           2.40695484715567   -5.82324509925781  -12.75271095285510
C           2.40583832010001   -5.64111566843701  -14.11475810746018
C           3.67148458979113   -5.17283257335095  -14.73225647268104
O           4.76388901280676   -5.13795981068951  -14.20475076930236
C           3.31257221699323   -4.71947810630932  -16.08839144536200
C           4.09382521442736   -4.11466981489452  -17.02892784264911
C           3.51465037200931   -3.72063917338884  -18.25623940479753
C           2.12766705689473   -3.95827031353717  -18.47747678658806
C           1.55152827450796   -3.55410769076632  -19.69736828650758
C           2.33340556509887   -2.94734469217180  -20.64030898104141
C           3.69935604422193   -2.70664357599980  -20.44266146714855
C           4.27423817023725   -3.09179418064577  -19.26334466858256
F           1.78418744969512   -2.56028914894377  -21.80775391717796
C           1.34491333697002   -4.59453160630379  -17.48491999352655
C           1.93047808156392   -4.97830012980887  -16.30937415341721
C           1.38982832100504   -5.66837519444402  -15.13459605060232
C           0.19477196093454   -6.34743667547489  -15.13234848262838
C          -0.25199970494617   -7.22417443107307  -14.12898662982583
N          -0.68279079713046   -7.98310260127713  -13.38065071814439
C          -0.72332108439234   -6.33668611051245  -16.20213160268779
N          -1.52957608641401   -6.35840568992538  -17.02008333800872
H          10.94007170723553    4.21310374152831    6.78948049437193
H           7.92147739030077    3.96031107525102    9.79474163977964
H           6.53439991645698    2.53375929534432    8.31068500790545
H          10.64876680084686    3.07106099990152    4.64163836469744
H           6.21484839864325    1.36156909409130    6.16073822716594
H           6.99885750537130   -0.95509649814993    1.47442678849322
H           7.55928396722890   -1.88627769297490   -0.60872078841196
H          12.60205514400417   -1.75116555657625    0.16166488516479
H          10.50456448668997   -4.69813505825097   -4.89614171522273
H          13.08782259722939   -4.72658884538857   -4.76829547937213
H           7.12516978564229   -3.04097783632833   -2.34921151764306
H           8.42084389305178   -4.54095716666731   -4.66965585787309
H           6.38245492980907   -7.01574317153288   -8.60308671198252
H           3.61292332930810   -2.43367326744469   -1.51496142246415
H           3.03764801483749   -5.44703521692378   -8.12168684175155
H          -1.18829625496118   -6.21227845765356   -5.38105032925776
H          -1.50911715281194   -7.03001560296147  -11.54056830587338
H          -3.79402017223921   -7.46028612161679  -10.39954239839026
H           2.64857114798405   -5.93355198929194  -10.18611704650928
H           0.33699620027358   -5.98653180844056  -12.18646971269235
H           3.40293012334041   -5.75770609145869  -12.32110875593827
H           5.14175312276088   -3.93628801388582  -16.83905588534018
H           0.50327177474823   -3.72663838832943  -19.88531729547820
H           4.26607870607638   -2.22376224402802  -21.22292085063769
H           5.32501681338393   -2.91683514592296  -19.08724459014454
H           0.29673625698122   -4.75166106001394  -17.68220840003433
