98
 SCF done       -192.742153150738          0.000550559633
C          -0.11086670254280    1.41069451832595   -0.95389615428119
C          -1.18420681403857    2.17183099905266   -1.32600833581208
F          -2.41287148763124    1.84030989779332   -0.89110621124394
C          -1.05744447347754    3.29742548935543   -2.15130067576799
C           0.18417169201665    3.65046063836236   -2.60211787383230
C           1.32528504699956    2.90164414801089   -2.24879638182121
C           1.17498068139161    1.75864434187146   -1.41040475134024
C           2.30348898304259    0.98476984992719   -1.05069670959610
C           3.53992769307748    1.34637920181571   -1.51159998865330
C           3.68562515788758    2.49930605501640   -2.33590416038346
C           2.61376503604150    3.25962381836524   -2.70504044176836
C           5.10934379178577    2.68103962768969   -2.66696722115220
O           5.61176940053342    3.51791128338946   -3.37933506769825
C           5.83283874890474    1.62692635046119   -1.89083890199470
C           4.85222761827436    0.72894237001972   -1.33855251799270
C           5.07184925130262   -0.55480013123156   -0.90146797604029
C           6.30737093325420   -1.22010671066126   -1.01245854637119
N           7.29371581788131   -1.80166029328576   -1.09737867788730
C           4.07058543199589   -1.39154511615894   -0.36843172754467
N           3.31135340611697   -2.11078970809303    0.10439199262671
C           7.19151044172654    1.71586666721597   -1.80726538773113
C           8.12194044337132    1.11319134294683   -0.93561945769663
C           7.99204755402802    0.63038424401719    0.36851111109802
C           9.19583444717704    0.09493168021208    0.88044772678419
S           9.48663884379183   -0.71994711473229    2.37663319101315
C           7.75298705746401   -0.82907151585254    3.00371699631222
C           7.04676706616308    0.50133645236214    2.94624585141933
S           6.50067623770329    0.85056065193899    1.24689418591692
C          10.25989807137833    0.23191170234398   -0.02680129294750
S           9.76700619797800    0.99543846384338   -1.49776181668335
C          11.53723710408678   -0.25073393519062    0.28378464564309
N          11.69157820071282   -0.76688167526851    1.50509124301126
C          12.95732393656172   -1.21127369485116    1.57378462824415
C          13.66497171506299   -0.95910689748874    0.31602523926920
C          15.05430346026158   -1.44111448718219    0.40619446099752
O          15.92363375346039   -1.40369757382506   -0.43947917701948
C          15.12244012553476   -1.97693896429078    1.77700517462864
C          13.82272869002096   -1.82038055503766    2.45480825614185
N          13.87721715657141   -2.30487923726282    3.71734295563437
C          15.10767161435253   -2.74156442935398    3.86267183707545
C          15.93816239261181   -2.56581394379513    2.69213749284172
C          12.77051487904017   -0.32973296956653   -0.52199057033842
C          12.93121370606850    0.16988206320385   -1.83828268093239
C          14.06164919036207    0.00001356564997   -2.56924891516166
C          14.24753558333731    0.54205068070294   -3.86007601031480
C          15.35581947978359    0.34691625919657   -4.68351893289723
C          15.26276183875332    1.04029302686317   -5.90665268596311
S          16.53499946741788    1.15505614434718   -7.10064472256349
C          17.44960410122014   -0.38061784095122   -6.74945556471993
C          17.96100339521871   -0.39571399557395   -5.32967160893839
S          16.62458293771241   -0.72390349871793   -4.13112434976982
C          14.08056551196555    1.77472269300863   -6.03193073574142
S          13.10394320329235    1.62106409265499   -4.59313778342926
C          13.57963848643540    2.63185169342619   -7.03149089701369
C          13.82366775017027    2.77859173859324   -8.36885866511745
C          13.40042190426634    4.06189843243262   -9.00422392938801
O          12.70352777889277    4.91621179192715   -8.50673454428421
C          14.04869781588878    4.07476086855144  -10.32802747895844
C          14.07940127067356    5.06983018521576  -11.26098059473380
C          14.79929232508180    4.86741153792398  -12.46035073030929
C          15.47345481498555    3.62916647160810  -12.66844861948050
C          16.19497351689003    3.43724390564123  -13.86233061286997
C          16.23230482369507    4.43835297827531  -14.79294452835945
C          15.57563806244819    5.66202623716440  -14.60737711847346
C          14.87017600849545    5.86497297735748  -13.45370830835519
F          16.92249727100481    4.25609079488355  -15.93387898406503
C          15.41417191965692    2.61101717181076  -11.68720590955158
C          14.71118893106744    2.83096307883815  -10.53461658963360
C          14.46739300468075    1.97851035692818   -9.37374216281757
C          14.65768430005446    0.61822456772393   -9.33168463377332
C          14.16338050926395   -0.20150244251385   -8.30045075460872
N          13.77052396320697   -0.90416235108150   -7.48115614509413
C          15.30209249939765   -0.12432819505853  -10.33995354000737
N          15.85261574175395   -0.77838465286386  -11.10662500563011
H          -0.24660637086327    0.54837187100025   -0.31998645679505
H          -1.94024938350876    3.85915634199645   -2.41228259628229
H           0.30711298772384    4.51336319736460   -3.23910413701945
H           2.16025070992086    0.12795254893168   -0.41180343538466
H           2.74648994529976    4.12394295618325   -3.33834761938643
H           7.62979641132617    2.40380867335848   -2.52672585484649
H           7.86440279218968   -1.16559838776243    4.03360981524157
H           7.21855197673583   -1.58940933787659    2.43440158344690
H           7.68998612774296    1.31431025162116    3.28475047844575
H           6.12615032888912    0.49767437601154    3.53064935804702
H          15.41933558806902   -3.18370956817284    4.79291849121414
H          16.96753295603571   -2.85307286794759    2.60741261432611
H          12.10331823635147    0.71740822135379   -2.27024374911556
H          14.88853052217700   -0.57032492587156   -2.16224805500893
H          18.27089121415674   -0.38455888154933   -7.46610843236526
H          16.78401238099155   -1.22153113478264   -6.94966526233625
H          18.44256597139792    0.54794473368049   -5.07067014412499
H          18.66593973010938   -1.21347140894437   -5.17851015467624
H          12.86484567522523    3.36161534918935   -6.65469014869334
H          13.56376264284756    6.00225180343341  -11.08631298787548
H          16.71108930655746    2.50680699094357  -14.04058394842716
H          15.64093642950115    6.41532007375944  -15.37635016436233
H          14.35588082806147    6.79954109387142  -13.28735926402592
H          15.93773327595441    1.68587685171526  -11.86929315435742
