98
 SCF done       -196.271578479842          0.000453726110
C           0.59363258622435    4.51186811968222    3.72884537716768
C          -0.67061496554329    4.45092647931401    4.24618443399418
F          -1.51419813477693    5.48188145691084    4.05517214731446
C          -1.13178936651373    3.34718174659144    4.97570644273751
C          -0.28831597477842    2.29028315322279    5.17915636720576
C           1.02533902974097    2.30040934654667    4.66822436381916
C           1.47602746735047    3.43321093954713    3.93037475356368
C           2.79394190561645    3.47124372005607    3.41614162352370
C           3.62862828181723    2.40875489495647    3.62985346633906
C           3.16734890890544    1.27394799759931    4.35641998922864
C           1.90503039317430    1.21278938838239    4.87046278369712
C           4.24672019897815    0.27228019587266    4.42163990120017
O           4.24098408763375   -0.79399027933894    4.99324878359242
C           5.35563117419032    0.82911175208578    3.59342506495028
C           5.02446906336278    2.18600000533272    3.25869073552481
C           5.89510731697485    3.16611750794677    2.84224477451086
C           7.28986481607362    3.00168993689695    2.77332864640130
N           8.43432987374927    2.91953629374332    2.71257840154264
C           5.51110517863755    4.47835250110122    2.50402113208245
N           5.26633085142981    5.55000079866559    2.17165627606024
C           6.40151734928683   -0.00203396687023    3.29759728725393
C           7.42750591931738    0.05397395409497    2.33840620966001
C           7.53375254950136    0.68866709538125    1.09711178348611
C           8.78622588872442    0.48697790608325    0.47829409812190
S           9.33251952317352    1.24795304951489   -1.00459121988487
C           8.13343999022605    2.61039309702203   -1.11502663828343
C           6.72913123657913    2.06417204343302   -1.20672362520155
S           6.13819341392898    1.49382916874305    0.42116575843639
C           9.62660441785292   -0.34060370266611    1.21332558755092
S           8.85830090965988   -0.88965716594401    2.66569529225038
C          10.96316220014844   -0.73258890842875    0.93865890855004
C          11.67668796377291   -0.65933530238234   -0.24459936217884
C          12.98422811983909   -1.12118833088452   -0.09312643899996
C          13.26590684016931   -1.55602906126501    1.21331968429162
S          11.92358830867371   -1.40219017461442    2.25224400051257
C          14.61410538434503   -1.99027050779001    1.26458244144041
C          15.18584393395730   -1.83148554605738   -0.00966619365853
C          14.17932812574415   -1.28330083853757   -0.90653982074431
C          14.32788077383892   -0.97970740746084   -2.22745274862458
C          15.54482990435219   -1.17873273448730   -2.91411147940203
N          16.52930522112803   -1.33471462881584   -3.48081180856133
C          13.27572672180795   -0.44405241566948   -3.00085229318573
N          12.42826406789037   -0.00919578307576   -3.63896208248435
C          16.52564120227904   -2.21441617111443   -0.05911381131591
C          16.97855550732018   -2.66686887757641    1.16822593922181
S          15.72209951486347   -2.61273870379814    2.40036655328344
C          18.26426860692617   -3.13352368754461    1.54146877605378
C          19.33053786441959   -3.53241566349722    0.74408593792386
C          20.46054612233564   -3.90708643815419    1.50095220302163
S          22.00863811319781   -4.47448109153394    0.92896952287074
C          21.88770083216288   -4.13471193735053   -0.85872395447707
C          20.59005917379717   -4.66201866386651   -1.42407828104956
S          19.19806438140716   -3.56453910648587   -1.00469072415319
C          20.24506654982341   -3.85729744320387    2.87610524922801
S          18.64426636981282   -3.27030466558447    3.23091661622898
C          21.20103149831916   -4.11903686335558    3.87796960984340
C          20.97561754249941   -4.39268098447814    5.19409309077822
C          22.02963766661539   -4.13673270481463    6.21097186286282
O          23.20189533620292   -3.92024783893594    6.00541878872677
C          21.31737796436875   -4.13792959936408    7.50551912747493
C          21.79019193121765   -3.82642500343560    8.74733737390325
C          20.90727202304234   -3.86130366707679    9.85046447010166
C          19.54253410422197   -4.21727627797668    9.64329320460509
C          18.66660836838424   -4.23885752494575   10.74586282113274
C          19.14276771069599   -3.92249830472435   11.98770457499125
C          20.48108843978987   -3.57282857730952   12.21271348763564
C          21.34468435759542   -3.54560315943921   11.15310876235532
F          18.30737017904983   -3.94251581090043   13.04231355369587
C          19.08182129057094   -4.54604202313073    8.34691798062482
C          19.95768520695155   -4.51120256471666    7.29680120057032
C          19.77924418282611   -4.82163004854911    5.88219862121676
C          18.79231443424601   -5.61795721046036    5.35916465118902
C          18.83046925861775   -6.12596950660331    4.04468278577114
N          18.86330108061434   -6.58991126808965    2.99459589492332
C          17.68765710743346   -6.08441676530020    6.09770645479489
N          16.76120141702137   -6.47384827681814    6.65266391808050
H           0.91544205063990    5.37974870155425    3.17462839154866
H          -2.13935404404686    3.35530903707832    5.36010627945044
H          -0.62047871351201    1.42841484913863    5.73811436110484
H           3.10583680155523    4.34034906398979    2.85899722970394
H           1.58023809491980    0.34587698973193    5.42609156801430
H           6.42410534701120   -0.89593134537403    3.91771905423607
H           8.40306721069485    3.14783580284401   -2.02372905099220
H           8.26201948675843    3.26253570909024   -0.25006607401460
H           6.67025792971853    1.23737972135204   -1.91564520116813
H           6.01672291613789    2.83938087554462   -1.49109606291262
H          11.25822450242948   -0.31223435617946   -1.17000366729035
H          17.14738192460561   -2.14432496256750   -0.93128387144922
H          22.74498008609114   -4.64940675108759   -1.29281743669147
H          21.98742803130635   -3.06135583011282   -1.02344326296146
H          20.36898699183232   -5.66430251428400   -1.05570307335882
H          20.61118980479391   -4.66896749217479   -2.51376538314762
H          22.24046326412936   -4.00926597849615    3.58076536523983
H          22.82555432906345   -3.55445320521584    8.88815253631130
H          17.63052693358147   -4.50693538553845   10.60985193728557
H          20.79972348762390   -3.33295430052697   13.21471033045687
H          22.38020777758321   -3.27874883130845   11.30171159559415
H          18.04332899244092   -4.80555916144600    8.21334536726017
