130
 SCF done       -228.517817267565          0.000504197241
C          -0.14134006332597   -0.34506680532828   -5.90786292997038
C          -0.83386981252227   -1.33568499027294   -6.54687317608520
F          -2.13315420231612   -1.14944060189106   -6.84308443423095
C          -0.24212887976672   -2.55312858645057   -6.91013139532014
C           1.07687601647211   -2.76074760126863   -6.61655574998606
C           1.83876063892531   -1.77292483704128   -5.95929160935670
C           1.21865131170447   -0.54060485101853   -5.59890621380849
C           1.96513439484260    0.46877800711018   -4.94633164865689
C           3.28377276326376    0.24532606433977   -4.65957978187581
C           3.89504695457667   -0.99451431018292   -5.00979967213846
C           3.20156329575675   -1.98071864412842   -5.64953919363507
C           5.29990262096302   -0.99368918292248   -4.55986387426057
O           6.13771646535651   -1.85170647953893   -4.71086108730628
C           5.45148984824203    0.27043170695198   -3.78377876185304
C           4.29570863607440    1.09664819262244   -4.04186471574926
C           4.27625039800104    2.46605748228994   -3.99143682361222
C           5.43352641069938    3.22218939553204   -3.70788062264669
N           6.38126310993837    3.85122562888546   -3.55364991213874
C           3.15181234164152    3.24582304969176   -4.32214348281289
N           2.25130735523028    3.91667344368893   -4.56069161168866
C           6.49377725524991    0.37203335570959   -2.91636765035822
C           6.63589388196227    1.15295084416772   -1.74437082943784
C           7.78256134411970    1.23700462843777   -0.96570100899764
C           7.60178329649876    1.99786317971096    0.22929590300944
C           6.28451942100011    2.52953273673188    0.30362441012046
S           5.29575274176896    2.01792322888178   -1.03340837515278
C           5.82180851757069    3.34040720079929    1.32209087360336
C           4.41451547467114    3.85516912129005    1.33499505660976
C           3.50783272207492    2.94193002202624    2.16228202515920
C           6.72247984607119    3.60545478505690    2.35751544644046
C           8.00957074036408    3.01489770318821    2.33223204883522
C           8.48101392850532    2.21033463728240    1.30834840450194
C           9.80872926694452    1.53208011668497    1.46706960228392
C           9.61675890421450    0.08711524465115    1.93294105494242
S           8.91363206176724    3.43709278616139    3.76816016225754
C           7.59699902732044    4.39076902683604    4.34924476552715
C           6.52555879995546    4.39255070508780    3.52981740473760
C           9.03185789875159    0.65018643524635   -1.44829980218290
C           9.18249910654641   -0.68728204726372   -1.64913553339811
C          10.33334941842645   -1.28409628420386   -2.18508761972938
C          11.52437536262930   -0.48782947377607   -2.48353925779237
C          11.57765527850473    0.85969722473601   -2.39135146254023
S          10.24793384800361    1.83282191574942   -1.90872425309669
C          12.50035545353650   -1.42890008814599   -2.91339979111968
C          11.95285811803127   -2.71336778551926   -2.93361492001929
C          12.88669920549677   -3.66704418359179   -3.39695808061843
C          14.08254301044695   -3.09645330447811   -3.70084784056133
S          14.13225596829581   -1.38764552299819   -3.44872017806870
C          10.57790203878603   -2.63144699064688   -2.49090342951429
C           9.58989436448255   -3.64079474176876   -2.46840157604076
C           9.77462738322813   -4.96292710079876   -2.72131310950564
C           8.71279246172359   -5.89799395960786   -2.75940461722332
C           8.79663487881943   -7.26939156799117   -3.03020936414949
C           7.50817756500866   -7.92082697481855   -2.99399409833890
C           6.46467555059452   -6.96613214945375   -2.87881924941227
S           7.07092047318895   -5.35012598560742   -2.64250866131603
C           5.11866193689944   -7.26416166836602   -2.92665659274850
C           4.08472987025850   -6.18048706876293   -2.87912315488610
C           3.81139712934948   -5.64361946559097   -4.28580631480026
C           4.79165098428244   -8.61703654492590   -3.05500917848892
C           5.81891540656898   -9.58830363709690   -3.00639413735609
C           7.17653456053098   -9.28524822647205   -2.94874595363542
C           8.17890680802160  -10.37112818177439   -2.65802364136003
C           8.15414949101114  -11.57371809538499   -3.61052223985600
S           5.13618239172675  -11.19530260147921   -3.01325797370829
C           3.53553414008949  -10.55692584220472   -3.12962767032953
C           3.49691172296730   -9.21020651037497   -3.14117703404445
C          10.05863845031740   -7.80904054402507   -3.40512492198664
C          10.38907724312523   -8.73384855906713   -4.35209044630367
C          11.76562943656910   -9.28594427421342   -4.35500660840211
O          12.71253465759177   -8.87147062393181   -3.71947958989636
C          11.71785292354979  -10.45477218683448   -5.25268954238390
C          12.69341808234947  -11.36920872986172   -5.52376017438253
C          12.40871241214387  -12.44269021648439   -6.39743386963743
C          11.11041806353491  -12.54321493226547   -6.97584843616998
C          10.82925622013025  -13.62013690270942   -7.83876359640954
C          11.80517039689325  -14.53964636534401   -8.10477567157362
C          13.08845163312310  -14.45648775961803   -7.54853371848095
C          13.37763094682251  -13.41845541222532   -6.70684237231676
F          11.53822518152549  -15.56959025939079   -8.93035035269551
C          10.12292694510904  -11.57253214011552   -6.68604973563934
C          10.42110318067285  -10.54184803462948   -5.83652809646791
C           9.62750283326342   -9.40183677364467   -5.37879641491881
C           8.46549134025894   -8.96274736172399   -5.96179322599343
C           7.89508995944568   -7.68990354866396   -5.77093316168094
N           7.41909525805644   -6.64487026993930   -5.75645123466112
C           7.74556149471157   -9.69672332171534   -6.92460987147447
N           7.09333420717499  -10.27306760712839   -7.67434877477916
H          -0.62916251242088    0.58101132140407   -5.64660447292444
H          -0.83881018155032   -3.29746614419299   -7.41309291169431
H           1.55636825190909   -3.68979792621860   -6.88618119626457
H           1.47349414566225    1.39118664052349   -4.67902786488396
H           3.68688630194906   -2.90685960603199   -5.91822979480910
H           7.28060117172512   -0.35376715066129   -3.09416301018503
H           4.04047614990233    3.90133473941486    0.30949549222877
H           4.39394508213497    4.86451296700053    1.74839538092021
H           3.50259666683193    1.93774300413722    1.74455161150374
H           2.48965857160041    3.32237359788430    2.16120360427131
H           3.85856449525980    2.88534005362012    3.19039704961761
H          10.39036589308642    2.07232462160798    2.21680573761362
H          10.37537603728941    1.54250053660108    0.53936212246145
H           9.08548993384113    0.06455030877108    2.88166824332878
H          10.58257538686871   -0.39370497694191    2.06498949451883
H           9.04459718227447   -0.48062739672359    1.20315014488594
H           7.70839641372024    4.89683136274967    5.28857649357917
H           5.62061407638248    4.93192532956993    3.74195043865155
H           8.36905302435038   -1.33078488282980   -1.33925051903817
H          12.45831865832489    1.42676142671290   -2.64816997563736
H          12.71130727250424   -4.72058821691260   -3.51176976378283
H          14.96413046092233   -3.58408901077112   -4.06846715168642
H           8.57834336044391   -3.30915442349962   -2.26868814087753
H          10.76972489386366   -5.33412826145026   -2.90133287085852
H           4.45096238392045   -5.36424080888464   -2.25142659352859
H           3.16081954081012   -6.55982191102460   -2.44024875403999
H           4.72615483589148   -5.24207213452169   -4.71524843340269
H           3.06261634724641   -4.85498156574964   -4.24551803744063
H           3.44984689414728   -6.44076144983421   -4.93199864369494
H           7.96014192582048  -10.73269164300041   -1.64715249655773
H           9.17762799535985   -9.94182143917867   -2.62626708098320
H           7.46009321530370  -12.33436694051321   -3.26482349819186
H           9.14216075013240  -12.02587916471544   -3.66502151853809
H           7.85244081611956  -11.28403684681335   -4.61301405602155
H           2.71349798776189  -11.24372881189282   -3.18535653388205
H           2.58610905285216   -8.64453936113436   -3.21434765429121
H          10.92133329100446   -7.41470261481278   -2.87498038432545
H          13.67117865962649  -11.27741955651799   -5.07474761468867
H           9.85237042973962  -13.71470015672261   -8.28667457248361
H          13.81818916599015  -15.21121961286365   -7.79541367215683
H          14.35910456801307  -13.33303120934374   -6.26491174473586
H           9.14919187599397  -11.67871183865673   -7.13700289671474
