117
 SCF done       -257.087762444953          0.000840380939
C           7.69228537803210   -1.79367918883380   -8.41770473222457
C           7.84628601296980   -1.68552186240062   -9.77204284375080
F           7.57449060702402   -2.74226931869749  -10.55506174319206
C           8.28081814109239   -0.50235037996177  -10.38713121547261
C           8.56169944270338    0.58495926869126   -9.60777059945882
C           8.42045086888071    0.52946945247356   -8.20542934672256
C           7.97536929755954   -0.68292623693784   -7.59873356128842
C           7.81837016010528   -0.76147609881706   -6.19665848356976
C           8.09554894928139    0.33778120499805   -5.42715445943777
C           8.55549056225465    1.54255070109763   -6.03746946415019
C           8.71431148441337    1.64453102971946   -7.39073208153177
C           8.82920754432141    2.55066202283464   -5.00176401292106
O           9.17736737490498    3.69566982954834   -5.13234182564082
C           8.65729919825958    1.81386646095398   -3.70262297189220
C           7.99924566205648    0.54589424996027   -3.99076222206541
C           7.28801706370027   -0.21618628476120   -3.10802178232754
C           6.65564537877983   -1.43229609976537   -3.45027740129613
N           6.14632951416854   -2.43618742027481   -3.66832501874920
C           7.05502824045390    0.14999599565534   -1.76723536198321
N           6.81658366034784    0.42180245763666   -0.67759204408917
C           9.25443671673148    2.27803586962474   -2.59352118832979
C           9.46695362452539    1.58874692215605   -1.33341886467454
C           9.11216096148572    2.20388573903832   -0.13051354166772
C           8.46444172671349    3.51992770611060    0.07781828614493
O           8.15723481368173    4.35485310668502   -0.72690998222409
N           8.25275884571079    3.61822039569268    1.46097134566123
C           8.71302229756312    2.49395950628434    2.15641953427985
O           8.68152428613955    2.33056405608611    3.34263010957591
C           9.25414047492674    1.58439180863246    1.10840130393052
C           9.79806577761104    0.31966350328326    1.23343521183055
C          10.19694520398735   -0.28913959918013    0.05004052884774
C          10.04018338766926    0.31060868958328   -1.20129707956632
C          10.55412707118765   -0.50724733848374   -2.32080690665282
O          10.57333258552129   -0.24164139687513   -3.48763078220291
S          11.18251092581025   -2.05999885376261   -1.68398199925535
C          10.81030457950385   -1.63465561255768    0.02280579229803
O          11.03718252707580   -2.35025937863607    0.94654114903402
C           7.67632986704662    4.75320192331807    2.01059059870699
C           7.20699409038569    4.84013540661783    3.25603650312461
C           6.58431240345217    6.03351413136470    3.79502921125535
C           5.36959604376242    5.93009081317285    4.48154985604113
C           4.55496153964592    4.72190110586994    4.73768827071438
O           4.77359960031339    3.57423958177113    4.46407879909405
N           3.39931374053615    5.17827518124384    5.39724316083042
C           3.40575173307895    6.56511504398124    5.59009259329226
O           2.54071810613182    7.21431400071427    6.10571303898526
C           4.68964672094126    7.03213006440137    4.99766543361439
C           5.19460876112684    8.31444791777681    4.88896401565731
C           6.42131398730476    8.43154162619754    4.24485915691794
C           7.10417529719179    7.33928865859465    3.70643224245374
C           8.42796783454603    7.68671316968140    3.14315097821205
O           9.25436175154116    6.96402008606197    2.67442077321575
S           8.68637582524214    9.46138698053431    3.29247069453551
C           7.10689676860110    9.73473191911526    4.09397597275247
O           6.71207702749371   10.80473245127276    4.43955590337561
C           2.36400385063885    4.30037469977242    5.66435569167796
C           1.22897851468493    4.60051878040520    6.30101663946674
C           0.14815060626104    3.64768637789285    6.44014951257833
C          -0.26756356464341    2.80240608578866    5.40074121593250
C           0.18944025490278    2.73039472292017    3.98570331086770
O           1.02792181690131    3.37854765843394    3.41993949590709
N          -0.59033093659426    1.73067065709744    3.39021128285269
C          -1.53897641547147    1.19445957674989    4.27415432724418
O          -2.32850189664490    0.33686450844137    3.99211262709016
C          -1.33195786505489    1.91031360390842    5.55423095509371
C          -2.05217786901480    1.80022978683110    6.72952870667477
C          -1.66262252631945    2.64638820676257    7.76042700363330
C          -0.60261147271598    3.54036061459943    7.62772939295629
C          -0.32120549250253    4.32332641869311    8.84756047200541
O           0.55209601579952    5.11440041756897    9.03389252349520
S          -1.52665747374345    3.88835043145655   10.11430917913565
C          -2.33698094215566    2.67086241180093    9.07828662832211
O          -3.26346627011886    2.00812819586894    9.42974017472635
C          -0.57139795921767    1.33646965401723    2.06450245193573
C           0.26101292659417    1.79518222940284    1.11728233659764
C           0.22869798447618    1.37255666264233   -0.24568141173563
C          -0.78824341656630    0.89682335635863   -1.00619752897487
C          -0.43276525868492    0.25055296047310   -2.30939578293688
O           0.64158359672266    0.30170941951012   -2.86095729594735
C          -1.63963633761408   -0.47818709973196   -2.72897552598786
C          -1.80475651916703   -1.33321115062529   -3.78110624672899
C          -3.05802467534655   -1.95460062632945   -3.97311322119640
C          -4.11696764316337   -1.68614253956038   -3.05675887322610
C          -5.36119781506136   -2.31881876258909   -3.24559520066069
C          -5.52756872625142   -3.16961734607407   -4.30280591373129
C          -4.49986099303856   -3.44382022568520   -5.21633233583780
C          -3.28504531061079   -2.84074229532916   -5.04654348232203
F          -6.71441317384577   -3.77316583653279   -4.48623146160678
C          -3.91811120427064   -0.79261473580733   -1.97899465191725
C          -2.70044382407123   -0.18538034646697   -1.82457467364654
C          -2.22736107465074    0.78729879322544   -0.84039644194170
C          -3.05271408952972    1.58308996704865   -0.09218687181099
C          -2.64040693742772    2.63543047881225    0.74785326645323
N          -2.38672752659995    3.50634271549138    1.45201106325865
C          -4.46235777964502    1.49067226028147   -0.11627321625495
N          -5.60925922693289    1.46823049723228   -0.09637606783278
H           7.35384968723696   -2.71922392408581   -7.97884360289719
H           8.38433763660760   -0.47697552652463  -11.46030564062397
H           8.89808282262065    1.50608482054053  -10.05901434993143
H           7.49507249012187   -1.69402760931467   -5.76184071273440
H           9.06165261938075    2.56590452633548   -7.83363010339380
H           9.62494833604669    3.29782870851184   -2.64063331318375
H           9.90730402346544   -0.17494971656028    2.18535887269138
H           7.60638890218214    5.56237039614563    1.29503800236113
H           7.19985757033615    3.97309140293117    3.90099518887610
H           4.68152077312129    9.17732424443482    5.28236160276729
H           2.58326134855076    3.30555325660241    5.29884101136246
H           1.08736591435299    5.57131839161149    6.75263823451654
H          -2.87508291400775    1.11279128413198    6.84182906809100
H          -1.30174245712044    0.56071995089989    1.86683699154386
H           1.04254300206373    2.49167870386845    1.38170734522716
H           1.18358659391012    1.40927981118754   -0.76354851434673
H          -0.98705939993925   -1.53407584189341   -4.45688553306049
H          -6.17575874447928   -2.12793618608263   -2.56457643684997
H          -4.69021466012829   -4.12403731489004   -6.03126363886410
H          -2.47809584033897   -3.03660451564630   -5.73637891796351
H          -4.73385249919085   -0.62062101583109   -1.29520655504086
