100
 SCF done       -192.524002252524          0.000521159165
C           8.69321966768752    7.76639458853803    7.48850017983853
C           8.46030235488134    9.07316855908204    7.81603284741036
F           8.96228277856261    9.56811055851985    8.96253948012325
C           7.71262642963492    9.93139933245468    6.99870886691119
C           7.19595555833974    9.44648193621841    5.82943611971559
C           7.40654485204170    8.10751212051336    5.44188239549009
C           8.16792326176922    7.24978132662876    6.28831225073351
C           8.38636447715502    5.90008887672827    5.92395328177164
C           7.86637763551146    5.43153329209235    4.74876454187416
C           7.11940974899766    6.29784434619126    3.89829988170305
C           6.88417474135579    7.60010529996725    4.23073940471570
C           6.71459113467857    5.56162458394451    2.68377291628944
O           6.03183493821652    5.95630228779902    1.76582821728449
C           7.38379907151264    4.23958054518034    2.79571293820036
C           7.89950686845984    4.10598758550547    4.13719769620344
C           8.11383888552294    2.92480907160611    4.80223828653134
C           7.81811028120450    1.66652358753011    4.24030265168182
N           7.53339717982809    0.63431438716798    3.82478886596643
C           8.54933821847223    2.84603382531431    6.13871523839221
N           8.92245862994211    2.73304240227326    7.21867126643483
C           7.50956121181969    3.44927849800822    1.69118897936570
C           8.44063775246648    2.42711805848458    1.43256452110685
C           8.35807174735145    1.50969645947652    0.38449707156898
C           9.47522706660089    0.65747893892860    0.29916641313911
S           9.65707120432670   -0.68132984675571   -0.82689987243634
C           7.91362956106171   -0.96794851967468   -1.26899491787129
C           7.30567685604217    0.27646690024877   -1.87193737549041
S           6.90191754011143    1.49995396707465   -0.58146140179870
C          10.44421232271858    0.94732434473746    1.25437463127224
S           9.94994689313257    2.25428679466921    2.28527119379204
C          11.69896350996737    0.30964196968372    1.48043417154477
C          12.39580958973653   -0.35472669308557    0.50088467792519
C          13.59193412379218   -1.03663908297719    0.70382388233739
C          14.23218718585165   -1.08613706408938    2.01909599249785
C          13.74997796235293   -0.45844206920241    3.11524595199284
S          12.29392293244125    0.44693044196128    3.13239623067919
C          15.40140666633468   -1.87307095314368    1.83271442933511
C          15.49564009050206   -2.29020537618787    0.50047692908819
C          16.65195200141238   -3.07369467317751    0.28354133536554
C          17.37908519582794   -3.22604093100619    1.42125845747935
S          16.70363549986287   -2.43175203218939    2.80118296643557
C          14.36685968568561   -1.76423906405583   -0.22557206147668
C          14.02393856173389   -1.89047197060533   -1.58723979676673
C          14.68773095966498   -2.60534644301877   -2.53479883828163
C          14.34446987478588   -2.70277226612545   -3.90246618570217
C          13.25786490907332   -2.22707152253790   -4.64392067215996
C          13.37438587159385   -2.49373391360885   -6.01894501999776
S          12.16400296721601   -2.18487345065427   -7.24722282995642
C          11.24415103107280   -0.82150014501607   -6.46998572492696
C          10.65674754355384   -1.27157516669752   -5.15590779074881
S          11.92971706693772   -1.38388339396917   -3.85525817522062
C          14.53738440260731   -3.19220311020059   -6.36142955507854
S          15.45280898243255   -3.56549888289527   -4.92580223264788
C          15.04827097824943   -3.66012953079956   -7.58308407520428
C          14.87068562098119   -3.28600096107536   -8.89067404944262
C          15.26529916912579   -4.26534695099804   -9.94116904337065
O          15.86833339106903   -5.30177651368167   -9.77245109826782
C          14.73059043759316   -3.72427798487978  -11.20510247520424
C          14.72758151086643   -4.28312851868425  -12.44939347459025
C          14.12929497266310   -3.57901035713821  -13.51965175115198
C          13.54499302538286   -2.30293282191128  -13.27409502191402
C          12.94666855703887   -1.60846529508595  -14.34290297646834
C          12.94043481396216   -2.17054504174120  -15.58925373610460
C          13.50977849091691   -3.42334899372290  -15.85130713723987
C          14.09474378227030   -4.11126809864913  -14.82419812943457
F          12.36855732130267   -1.50711446612863  -16.61199481889373
C          13.57118063860105   -1.74510031596941  -11.97368029425564
C          14.15672110147824   -2.44545494663340  -10.95527314546966
C          14.34524242686642   -2.12100109138463   -9.54295012428132
C          14.20563138789883   -0.86479668774059   -8.99931293798639
C          14.63842107362706   -0.51582891642263   -7.70840994511675
N          14.98008486579040   -0.18032178344433   -6.66369570651512
C          13.66609467380416    0.24235320850906   -9.68076487092201
N          13.19662508717638    1.17706891054837  -10.15617385029545
H           9.27085275688828    7.13365106129407    8.14409109941906
H           7.56163962853183   10.95321181016121    7.30880613498899
H           6.61671314933600   10.08812775105033    5.18256493788596
H           8.97052951064514    5.27212057080518    6.57827052927895
H           6.30829433475838    8.23783211231922    3.57693778402464
H           6.85747295560612    3.70349005274342    0.85901815066594
H           7.37167361417536   -1.29071407199044   -0.37976457769920
H           7.94519561109618   -1.78192109121249   -1.99320925509502
H           6.34989906457843    0.06024102452850   -2.34975927746005
H           7.97859905958428    0.73614214920854   -2.59683595490214
H          11.99400914699917   -0.31789921257426   -0.50062022089774
H          14.24994849909043   -0.48748931397590    4.07056643668408
H          16.94899036298524   -3.50802220200565   -0.65285567913025
H          18.29588108365405   -3.76887980062975    1.54391445961041
H          13.14179852562099   -1.34616592007248   -1.88396681043213
H          15.58001605868241   -3.14871057766562   -2.26174786690396
H          10.46548210411626   -0.56089474234109   -7.18677921391319
H          11.92407131153521    0.02232476954316   -6.34280959421123
H          10.16170811987298   -2.23865455875135   -5.25270073660909
H           9.94867165438112   -0.53840867998826   -4.76835857464843
H          15.71137210260448   -4.51721237417435   -7.47930966945638
H          15.17504130518867   -5.25122470306921  -12.61783636662053
H          12.50070886702987   -0.63992036965111  -14.17837133952405
H          13.47459680712272   -3.81704181375222  -16.85471395306835
H          14.54019533148511   -5.07868371405846  -15.00136252563497
H          13.11703022368684   -0.77957931413690  -11.81677196603188
