76
 SCF done       -163.206963977615          0.000678952408
C           0.30733393232279   -0.79880447687788   -0.51144083794378
C          -0.90219538828547   -0.24884904615506   -0.18996752759903
F          -1.90764621738042   -1.04812099935431    0.20987891283100
C          -1.14344459641741    1.13017628570602   -0.25972833805596
C          -0.13357159178559    1.95861697894098   -0.66301928416813
C           1.13411366795068    1.44535400026210   -1.00655409574152
C           1.35837020392017    0.03933670395155   -0.93204400109178
C           2.61686139705399   -0.50098774210242   -1.28435826610368
C           3.61647646644336    0.33868490905007   -1.69571714691493
C           3.39258144661081    1.74516272176938   -1.74926984405099
C           2.18598625651544    2.29287442846872   -1.42020697092529
C           4.63110496732321    2.41961837452681   -2.18065221154935
O           4.80604658860081    3.59708655868018   -2.39028977453311
C           5.65966228606253    1.33877920505955   -2.25074582615972
C           4.97450848670410    0.06689908296948   -2.15455911102306
C           5.42652747470979   -1.13843268395813   -2.61854506862449
C           6.64763690108436   -1.30999720742572   -3.30098536457472
N           7.61707381384301   -1.50309032313908   -3.88471004457031
C           4.70016677318753   -2.34249861289516   -2.52220230074588
N           4.16989450452679   -3.35762485012663   -2.44408884929796
C           6.97129403323532    1.68067176584040   -2.27603616818578
C           8.12988110209271    0.88361755705481   -2.01398710248688
C           9.37089124564702    1.23399390180398   -2.54606755458194
N          10.48886104228144    0.54505097844054   -2.41512978913681
C          10.54505265029390   -0.56529953168845   -1.70228980776876
C           9.37366349565669   -1.00619563017739   -1.01866026964650
C           8.15007291731159   -0.26879295823413   -1.18881014949884
N           7.15073534681963   -0.78818953877143   -0.47575790168759
S           7.69092887702957   -2.08398252769196    0.30918556382946
N           9.20990322852143   -2.04466349516728   -0.20167225689709
C          11.79977553941401   -1.27891403210977   -1.66839010757424
C          12.07617612241078   -2.30975046178032   -0.77377256733204
N          13.20111457518399   -3.00405753351142   -0.72554522138391
C          14.19880842900611   -2.77418612659360   -1.55940548438818
C          14.07367866679147   -1.73090430807401   -2.52089498094791
C          12.85212097890735   -0.96816281603694   -2.56842351401908
N          12.88546085096097   -0.03936852856254   -3.51942357290044
S          14.29938932448644   -0.10466378964903   -4.26531509792276
N          14.95223857245352   -1.31648994684368   -3.43322930211645
C          15.36518752923449   -3.62196177347390   -1.45563974973722
C          16.30829358195848   -3.74610038432312   -2.47203447880366
N          17.35241769473884   -4.56052627850351   -2.45573469653533
C          17.59406936744550   -5.34692308496698   -1.41736681134874
C          16.73292701159621   -5.30858061448493   -0.28711719429977
C          15.59448813500133   -4.42971076125173   -0.31145710500731
N          14.90164749091657   -4.49398304362399    0.82248019231308
S          15.59792394041358   -5.55216067347652    1.80284360199676
N          16.82173383800616   -5.98715543646818    0.85444074570431
C          18.72312008756234   -6.21200895602355   -1.50146885657203
C          19.19400764990731   -7.12518362201658   -0.57737987890732
C          20.32361991441674   -7.79080982950419   -1.05017017458765
C          20.70165126583106   -7.37283893528374   -2.33944687875947
S          19.67768088233584   -6.16666547107875   -2.96983485163468
C          21.85476792851351   -8.11518501980340   -2.72567367723321
C          22.19667288020240   -8.99095817814566   -1.68848698753959
C          21.25031609532443   -8.81908253736825   -0.59943930769283
C          21.23139315292911   -9.48020032662538    0.59374347374044
C          22.18648627661057  -10.46544437137629    0.92132178430308
N          22.96070512160138  -11.26665474257994    1.19265803507823
C          20.25811318384303   -9.22733028252842    1.58378077375981
N          19.47547991982540   -9.03339163401889    2.39913417410155
C          23.33052155426831   -9.76749226162065   -1.99163769435305
C          23.81623536416860   -9.47046094928319   -3.22962354914253
S          22.91483249963865   -8.24551524901891   -4.05718285003247
H           0.45611407031491   -1.86551635390126   -0.44972164387312
H          -2.11857841769814    1.50654984930171    0.00576705287441
H          -0.29529261792730    3.02426804108348   -0.72439161381432
H           2.76232408348339   -1.56716506163277   -1.21214797165355
H           2.03470820095363    3.36052962496103   -1.47566940409642
H           7.16594986898123    2.72981977181393   -2.48026238079704
H           9.45597829898950    2.11864316994163   -3.16360926367114
H          11.33457498439567   -2.59980120027573   -0.04352850971976
H          16.20682814133112   -3.15649791458306   -3.37161754901092
H          18.71919494051345   -7.27402950584515    0.37540408274849
H          23.76585512411542  -10.50264949365144   -1.33989312826514
H          24.66520658487442   -9.90204279585398   -3.72105647409486
