96
 SCF done       -191.370352367667          0.000570023087
C          14.16977448504754   -6.74410646842612    1.75263000295919
C          15.42804274970424   -7.13910060059818    1.39180102960963
F          15.80643774301630   -8.41182090775106    1.59606185202822
C          16.35366133337790   -6.26140992491648    0.80920412978017
C          15.98771283222479   -4.96287679889149    0.59060102226167
C          14.70174060780282   -4.50154093342998    0.94151379697687
C          13.77610310481328   -5.40900706314209    1.53737108258611
C          12.48553344719286   -4.96737734362445    1.90916445306431
C          12.13474499449200   -3.66290314508458    1.68714249414032
C          13.05423347671658   -2.76525291249851    1.06803042190330
C          14.31041488904659   -3.16499608632301    0.70850913849937
C          12.41318537104780   -1.45155743100958    0.88539597433156
O          12.89091291713747   -0.43548534080647    0.43973991372930
C          10.99096722019721   -1.65868111226744    1.29748418241746
C          10.90790747349457   -2.93728606686472    1.98988638438003
C           9.97832859987487   -3.29213750235505    2.92439449911228
C           8.94492867344507   -2.43218337699293    3.35013927714155
N           8.13091230626281   -1.73434185302620    3.75927267684823
C          10.00973992047616   -4.51017598313391    3.63751560126881
N          10.00268730496430   -5.48217862231255    4.24569103862051
C          10.02637943324162   -0.81354360770634    0.87945399776504
C           8.60998347547268   -1.08806616666981    0.86458490173489
C           8.08835766380489   -2.30031390996026    0.45636652619120
C           8.78736199840066   -3.49232656873320   -0.06258915022999
O           8.53878007897632   -4.59815735844504    0.35645909581907
C           9.75842403159224   -3.25639603381505   -1.19488107053439
S           6.36941822407692   -2.34241647628708    0.59914989086663
C           6.34060146015759   -0.73764867138508    1.17229290009710
C           7.58842316933959   -0.17403087369660    1.28182466658845
C           7.81584671120042    1.13002302833198    1.84372886799013
C           6.86327958840414    2.09716521455635    2.08330088969886
C           7.40802217313107    3.23349020338596    2.68827255118851
C           8.78531039059806    3.12273561648688    2.91181599495923
S           9.40652554792910    1.62448556542333    2.38964940974932
C           9.24394285721872    4.32758793531525    3.52122435043982
C           8.14716318098147    5.18075783329416    3.69655948399822
C           6.95647612566620    4.52652455609783    3.18121905893450
C           5.68257906770856    5.01400933689205    3.17305487553729
C           4.60377185723142    4.28495276678885    2.63076217651518
N           3.72751348119589    3.69516664024569    2.18466845456541
C           5.36591768578026    6.27827544478985    3.71244521651487
N           5.11483387459067    7.30282843473351    4.16195267507052
C           8.49890105815882    6.39702143906072    4.29959435787255
C           9.84140430237860    6.46259352937513    4.57059935431832
S          10.70357570344384    5.01438121188007    4.07307914725666
C          10.59175515878973    7.55925121624699    5.14285224718990
C          10.34131853623551    8.20304930732543    6.33541612243918
C           9.39357003685969    8.00221048531564    7.43670940649344
O           9.30561582650070    8.85220544519658    8.29613810811172
C           8.61198033526111    6.71790177632780    7.48486139438152
S          11.47969984117808    9.48632227366261    6.62124225841783
C          12.31941400779611    9.11102472671196    5.19401064537514
C          11.75100832150587    8.07882733440376    4.48506791931874
C          12.18460826481980    7.63724571094279    3.18588719063335
C          13.44855661055451    7.57009015896985    2.71645363143146
C          13.70458437800754    7.50911792620480    1.24661551808648
O          12.89818279892234    7.24778121749470    0.38589238211787
C          15.11950352167859    7.89364628549052    1.09159529630337
C          15.82423602056008    8.12753376822575   -0.05458112007211
C          17.17865555825761    8.51734034574574    0.03574778595948
C          17.78113187469848    8.66184833735214    1.32034332913323
C          19.13067931844843    9.05672751144312    1.40181820034912
C          19.83249553120633    9.28938146339240    0.25170778848033
C          19.25850158503794    9.15202425698482   -1.02010347927751
C          17.94957006173640    8.77072100561793   -1.11773789075767
F          21.12054188669607    9.66474442377475    0.32722101821590
C          17.03044733682299    8.40720881226961    2.49117800258895
C          15.72081599556140    8.02404184311970    2.37834082061383
C          14.73151369384575    7.67144598178810    3.38969403641133
C          14.99513908156073    7.26955739293470    4.67021870242530
C          14.02149919190301    6.68296773096528    5.50559876044689
N          13.26894549728506    6.14773083747368    6.18696552528294
C          16.27867992643684    7.30750927009922    5.25342357778063
N          17.30361798285477    7.33981771949942    5.76765192630973
H          13.48443939614816   -7.44532463741019    2.20229549344031
H          17.33241688217303   -6.63013188802987    0.54639777855903
H          16.68307737155332   -4.26878162311294    0.14319193985141
H          11.79712061589579   -5.67273497419087    2.34698291728672
H          14.99637421629692   -2.46930845473947    0.24882999023969
H          10.35813580018185    0.12131273929357    0.43869681441983
H          10.06611375965445   -2.21959267197254   -1.27873789493781
H           9.24638515363304   -3.54551462544354   -2.11319462072627
H          10.62434362524913   -3.90622021774092   -1.08685539780221
H           5.40113449654662   -0.28869745533746    1.42387187371591
H           5.82860268567430    1.98621018950381    1.81856787783103
H           7.81991182645847    7.20575569871987    4.49959191977816
H           9.19825188733305    5.88420950966874    7.11033886091001
H           7.71230834091829    6.81758774272781    6.88116719587688
H           8.31050014332781    6.53454365793601    8.51335498561819
H          13.16794584607959    9.69858512495016    4.89987145679089
H          11.39997221287346    7.41120832437351    2.47026100112160
H          15.35282837241823    8.01729849868051   -1.01964422456395
H          19.60593695045555    9.16946241468829    2.36368909953084
H          19.86152483937839    9.35018600061281   -1.89194432869499
H          17.48564065735461    8.65842806232096   -2.08602332940530
H          17.50616415393579    8.53183440688260    3.45133388730671
