117
 SCF done       -226.383709317704          0.000315915828
C           2.66113664827968    5.61692410637267   -4.49227115563329
C           1.36324556555084    6.01134353048375   -4.66059469545524
F           0.95601391210934    6.45103452675620   -5.86644825783820
C           0.42558527130461    5.97598047372479   -3.61990352753675
C           0.82103904238603    5.52979263163096   -2.38953593725636
C           2.14671151936582    5.10827505342833   -2.16055172261839
C           3.08616111728817    5.15501523593581   -3.23129823709654
C           4.42368592990537    4.74358721165521   -3.02388937429546
C           4.80402060041210    4.29097558555224   -1.78960221034374
C           3.85591487965258    4.23206940247391   -0.72763545960100
C           2.56302304863005    4.63462875923405   -0.89579863253237
C           4.50486084498306    3.66946995454901    0.47514279846968
O           4.02351959466325    3.52320208084657    1.57510738420404
C           5.86175937595077    3.25837616178700    0.02425593291072
C           6.09351229532936    3.82768586149435   -1.28388358979766
C           7.31303662354862    4.09940758012351   -1.85073767201425
C           8.53794206555895    3.85187100576103   -1.20103506505192
N           9.55760619152558    3.69158994694595   -0.69818494862830
C           7.47712049191932    4.63576328666433   -3.13994975004285
N           7.65931157624071    5.01483623796300   -4.20935209061584
C           6.58197746806505    2.38196210672195    0.77628210814752
C           7.66593623650047    1.54719469986712    0.38844293334267
C           7.89137769008350    1.09898995703730   -0.93498753498798
C           9.04215484960483    0.32065342470083   -1.28386715583624
N           9.23137656667389   -0.03910117689348   -2.56951776879016
C           8.40201853931517    0.35951300077590   -3.48856108280166
C           7.20859214632001    1.06314751248183   -3.13022607673782
N           6.98071856593737    1.38371241762474   -1.88713281870873
C           6.16828936239660    1.41299619201560   -4.13869022872797
C           8.70046502110346   -0.00524074780096   -4.90268052203386
C           9.98489668895948   -0.08357091757298   -0.31875060075896
C           9.72109133767953    0.27680784685944    1.01106386015770
C           8.56827725284740    1.07307936011896    1.36102009595596
N           8.53016361604399    1.34654967041840    2.66663659778419
S           9.81437246161136    0.68584697678071    3.36713083876663
N          10.48764054681094    0.02578996809824    2.07832896014925
C          11.17798429502141   -0.81367102784986   -0.68421906302272
C          11.58989079257055   -1.94368442126456    0.04802548769156
C          12.79516117878588   -2.65091763817884   -0.27322297129862
N          13.10910941768046   -3.76145795829889    0.42509062814899
C          12.37601583648679   -4.13341282812422    1.43126241863998
C          11.18373580632369   -3.41183008646454    1.76685132487989
N          10.81158127022777   -2.38986560738935    1.05622183927676
C          10.29910507832027   -3.84019275300838    2.88823945151761
C          12.78327371971109   -5.36042603522205    2.17475020479975
C          13.63732313484476   -2.23754738254687   -1.32591558151667
C          13.21719665133338   -1.12530366670143   -2.07105954602632
C          11.99107338923477   -0.42253823406644   -1.75734221835192
N          11.81945643463743    0.64648079420217   -2.54240514811034
S          13.05450729393269    0.74696759705545   -3.55214082934145
N          13.88375007767124   -0.53143342390400   -3.06682995697690
C          14.86977744034157   -2.93198128610952   -1.61517104031570
C          15.24574804717469   -3.25618471135009   -2.93576076857579
C          16.47431503836036   -3.93001729742175   -3.21669296036719
N          16.81673927406040   -4.17912144072404   -4.49865615772675
C          16.02503885101146   -3.80674468238138   -5.46433206643692
C          14.76085188994772   -3.19798040032300   -5.17586561861781
N          14.40293096360928   -2.96081963692518   -3.94802060786317
C          13.79620380537448   -2.84993052972209   -6.25875289493500
C          16.46234379179858   -4.08197108811548   -6.86177950631926
C          17.38143726624854   -4.31610039779326   -2.19937748511378
C          16.97606722372591   -4.04164264791410   -0.87764377078437
C          15.74106099672070   -3.34553020653766   -0.59608039785356
N          15.57824762068790   -3.14123250741869    0.71572256231229
S          16.79860539246650   -3.79861398126265    1.50336849622980
N          17.62498057920218   -4.36605232432846    0.24419071348519
C          18.57531717315682   -4.99711312494690   -2.56366171515766
C          19.73470222603442   -5.18280695098120   -1.87449254278803
C          20.63707552738480   -6.30058628675587   -2.26877054401506
O          20.58714535702582   -6.95321134436860   -3.28645803222269
C          21.55988029837894   -6.47316378872352   -1.12842611454916
C          22.50051563989301   -7.44000495925046   -0.92215640174041
C          23.25401954522252   -7.42510996826076    0.27347119291713
C          23.01272686291427   -6.40327779045305    1.23735982117314
C          23.76158800400952   -6.39986436237855    2.43036134618284
C          24.70129944718077   -7.37091412678897    2.63635431492371
C          24.95446372835690   -8.38275465473091    1.70064394678837
C          24.23611177297368   -8.40149734186571    0.53744625847175
F          25.41760814440542   -7.36886243015662    3.77678769412600
C          22.03690692341443   -5.40872259509168    0.99250567874642
C          21.32450202237248   -5.44081440994984   -0.17522066812447
C          20.29089678319427   -4.55372197394722   -0.70061423118303
C          20.05920739186000   -3.26940515831625   -0.28136790206529
C          19.23667398840318   -2.36021713041848   -0.97491935343155
N          18.59909158069183   -1.57546366732413   -1.51891394208467
C          20.65967879368396   -2.69096318758740    0.85316126783110
N          21.09685236965488   -2.18085562196549    1.78466036494133
H           3.35660522523804    5.66235645648959   -5.31582170183371
H          -0.58483216645923    6.30041674237385   -3.81173826864419
H           0.11709775213652    5.49290212922496   -1.57174667670496
H           5.11363159369853    4.78793220133528   -3.85181809479515
H           1.86337988705645    4.59005004953561   -0.07459971492567
H           6.24783989169145    2.25570759243347    1.80136353727505
H           6.56250089263855    2.15892041857853   -4.82888195532668
H           5.29387173548872    1.81836023518842   -3.63629203841508
H           5.88119444767684    0.53713519467050   -4.71745303648597
H           9.64466000664230   -0.54022791415498   -4.94002541076583
H           8.76819834889667    0.89489833150937   -5.51149657159110
H           7.91252831978066   -0.63420813079695   -5.31467323604061
H           9.95178073282871   -4.86090417842700    2.73527894394559
H           9.44344578263804   -3.17382099934488    2.94407482144165
H          10.84484297597344   -3.80729508701935    3.82973617620975
H          13.68490112042016   -5.76864740386851    1.72770178404210
H          11.99350939057386   -6.10939736386831    2.14219759978586
H          12.97608450327873   -5.11883213515929    3.21878918772609
H          13.54438856715839   -3.73102454439566   -6.84709216397182
H          14.23497593330445   -2.11135439384997   -6.92784119276314
H          12.89359851131971   -2.44111475503155   -5.81438355976638
H          17.43977938633914   -4.55519760908841   -6.84680187168491
H          16.51826723708739   -3.15316491341977   -7.42740344860627
H          15.75115971976132   -4.73767049616498   -7.36224969166138
H          18.52498148224888   -5.49868106298951   -3.52555067928416
H          22.66811161072486   -8.20972431495692   -1.66070452406813
H          23.59595942355611   -5.63390362139362    3.17182576909449
H          25.70837958045117   -9.12269963539855    1.91792894927340
H          24.41292197216476   -9.17110962922399   -0.19891971757227
H          21.86899505301138   -4.65092340303671    1.74132641590327
