100
 SCF done       -186.565032605951          0.000771618889
C           0.04105634039304   -0.91688324652823    0.39503597324583
C           0.34325179966286   -1.28869376462773    1.83008537602766
C           1.59811129469027   -1.12330192635654    2.39964723364399
C           1.80744960224728   -1.44019114630713    3.73288544468928
C           0.76406515110889   -1.91400993817594    4.50763538657290
C          -0.49800192951294   -2.05440363671284    3.95272242503726
C          -0.70924833954459   -1.73680082531729    2.62537859370426
C          -0.67803409509668   -2.00426344266572   -0.38168178816548
C          -0.67869483480205   -3.32687556266128    0.04717610936857
C          -1.32572258701278   -4.29936271453838   -0.69590445151530
C          -1.96772134346881   -3.96801914659897   -1.87640840671712
C          -1.95351278256060   -2.65582203654023   -2.31822722873581
C          -1.31089699550348   -1.68149231801075   -1.57745713767474
C           1.22832848292718   -0.43607034333700   -0.39010580276684
C           1.17668085774425    0.86367172016875   -0.79283240439980
C           0.00992676496211    1.60100506184917   -0.37342800831055
C          -0.25270463639294    2.92360361722591   -0.60742798656616
C           0.62161484272514    3.79851130288227   -1.28008917060207
N           1.28809716963165    4.57168319736016   -1.80375609053755
C          -1.45056775472918    3.51092752290642   -0.15145715645794
N          -2.43174324220223    3.98098390722232    0.21220502791277
S          -1.07963391775448    0.58142023452825    0.51407825708344
C           2.14819476775988    1.42041012855974   -1.65434235996203
N           2.92848647249165    1.79479359488929   -2.40602798128758
C           2.37436131148062   -1.28563929388590   -0.67749184721889
C           2.31160916454412   -2.55859677436777   -1.20347006147233
C           3.46140134484380   -3.29952735278190   -1.49789434255960
C           4.73885077349078   -2.82461312285844   -1.27332794411399
C           4.85083265493228   -1.49557966651498   -0.77934261605559
C           3.67044147763534   -0.74370615798155   -0.45358225786374
N           3.91174123151669    0.45192051610289    0.07068796428548
Se          5.62666297932739    0.74515197352584    0.07749811031412
N           5.98471559715227   -0.83310508202417   -0.58368810518693
C           5.92538019756643   -3.62876812207479   -1.54299241234786
C           5.89306695742668   -4.42809485195427   -2.77326032547420
C           6.25554203346720   -5.77613114991533   -2.75561431340521
C           6.18888602731881   -6.53960443103700   -3.90208588358343
C           5.74526842211103   -5.97391934598725   -5.09742272871316
C           5.35219499852049   -4.63690824424067   -5.11113294079558
C           5.42579831513967   -3.87305484827823   -3.96540098619496
C           5.62917676637278   -6.74771626941340   -6.36635750717025
O           4.86841730759658   -6.44829857238074   -7.24457095420545
O           6.43886233315092   -7.81624557882433   -6.49263115383855
C           6.98110131549900   -3.65243755470952   -0.67299004921201
C           6.82485363592919   -3.10368395729519    0.68505890644099
C           5.68944776142103   -3.40951435008179    1.43668752638977
C           5.48884790720365   -2.83019706756399    2.67034768552428
C           6.42998755557547   -1.94820948292333    3.20114543666850
C           7.58441217931063   -1.66969255727705    2.47018811081167
C           7.77950303734988   -2.24521407930413    1.22981076574232
C           6.11520444511368   -1.32147563452742    4.51585124070592
O           4.99549250801221   -1.26523960105913    4.94887360535691
O           7.14406545772682   -0.81946921840240    5.21750995700210
C           8.27002476343641   -4.18157359633263   -1.01907140359393
N           9.15719475419806   -4.61703826729915   -0.07470722520953
C          10.32264683088904   -5.00373956875055   -0.66936775511753
C          10.18058178979803   -4.79617755135833   -2.04162972669892
C           8.90610760208221   -4.28900845224279   -2.25618088836973
C          11.41418491523413   -5.49476358346778    0.03086407074481
C          12.38851993398086   -5.92214954016073    0.61705717099194
C          13.52133509536795   -6.41223883727510    1.25776848800156
C          14.64802035815707   -6.81724242781743    0.53158573308789
C          15.83820563492391   -7.32655326602886    1.19609203613365
N          16.79146262859033   -7.65323453807103    0.30228655938521
S          16.24665076227252   -7.35365444024598   -1.16744601498368
N          14.79097073085753   -6.79854969882170   -0.80019094035256
C          15.91650678318564   -7.43604177153314    2.57110537311217
C          14.79741343151233   -7.03595448924958    3.31539103528683
C          14.65398868318051   -7.05737480210632    4.69281230066575
S          13.13353037565993   -6.48319434391622    5.19024358516221
C          12.63011031718744   -6.19247108208303    3.58917512792370
C          13.60301910353785   -6.52618363796535    2.67073261324856
H           2.41909304837018   -0.73253839522678    1.81984476471642
H           2.78575112202560   -1.30219764067017    4.16752447775958
H           0.93097499100396   -2.15778740280983    5.54566124614683
H          -1.32319267781769   -2.40277315755287    4.55559489452785
H          -1.69798256876704   -1.82598500983372    2.19728238451131
H          -0.16663163326108   -3.60132910733978    0.95701069248296
H          -1.32412736336466   -5.32123272437780   -0.34726430066111
H          -2.47358088842409   -4.72852443906620   -2.45132662463111
H          -2.44426524900411   -2.38705152880654   -3.24106601107990
H          -1.30995855305660   -0.66038263780387   -1.93085939183659
H           1.35265391931199   -2.99842892021611   -1.42435893669164
H           3.33849228450610   -4.29479083196119   -1.89987305253717
H           6.57949571710376   -6.22656801998726   -1.82922735207531
H           6.44510476007453   -7.58966917254993   -3.84289689286294
H           4.99315013216942   -4.21640331226724   -6.03788648619151
H           5.13238899047317   -2.83405533903888   -3.98610473007828
H           7.04130654539490   -7.91496084995024   -5.74367966208605
H           4.95659108961331   -4.09621288507800    1.03988244182809
H           4.59994300416274   -3.04427305592250    3.24410492173836
H           8.32269070561334   -0.96584600465317    2.83321255589682
H           8.65282564360450   -1.98699918566365    0.65006247974270
H           7.99629043494916   -0.95420591551415    4.78359774531565
H           8.97044314750449   -4.65996202797426    0.91393869594642
H          10.93548604160808   -4.99025171055683   -2.77676149665277
H           8.48957142975375   -3.99522081422239   -3.19856530546031
H          16.80392065480770   -7.81386665798706    3.05015037271883
H          15.37136568824673   -7.38293237668254    5.41816748019953
H          11.65507830518372   -5.79569734253998    3.39106821719240
