122
 SCF done       -228.468823551494          0.000374808317
C          -0.54078136132755   -4.92019498051790    2.41386566494628
C          -0.30388533244445   -3.74415263259753    3.32848858905922
C          -0.39991923061542   -2.43975139528887    2.85700877497236
C          -0.21731963694648   -1.37283200644154    3.71896486940704
C           0.04518800887467   -1.59669715639277    5.05930749390838
C           0.10515581650317   -2.89368728701577    5.53975386034299
C          -0.07912687209269   -3.96241180275426    4.68337326868885
C           0.36344949358798   -6.11870672437887    2.66220659921115
C          -0.03295493046619   -7.37947099459558    2.23197580113214
C           0.81622052511274   -8.46412933306499    2.35122195477933
C           2.08146851206227   -8.29973086111932    2.88706990849988
C           2.48554468464643   -7.04533577457163    3.30849168098567
C           1.63643931242106   -5.95893992631041    3.19610531750378
C          -0.42750232010755   -4.65439174166553    0.92970344669538
C          -1.57732257543676   -4.86297977271687    0.21382206210974
C          -2.72878696067970   -5.23381142777487    0.99268303980992
C          -3.99813599436059   -5.46838773568432    0.53238795976098
C          -4.38820060436546   -5.38321508976531   -0.81690774458029
N          -4.77664650370993   -5.34042103000917   -1.89571369197648
C          -5.02456370163405   -5.83510065928884    1.42632081147133
N          -5.85394109460873   -6.13826456735612    2.15870736533507
S          -2.32958833836556   -5.37358432711514    2.68148390042237
C          -1.64880156217514   -4.66686318547036   -1.17954995823392
N          -1.65571403060284   -4.47014983488874   -2.30943735732336
C           0.85948026504777   -4.36736574808805    0.39181474859876
C           1.90058138361731   -3.72986582629424    1.04167518563476
C           3.06860653784592   -3.72554437196599    0.29129797440411
C           2.93727991518364   -4.40039184205660   -0.94667815366145
S           1.34884442785859   -4.97120002818056   -1.19713373441457
C           4.20370309959438   -4.43521452893341   -1.57158320017349
C           5.12236866871057   -3.76430967269706   -0.73527613604239
C           4.43444687768976   -3.29235413226375    0.45501489892014
C           4.98753484944357   -2.64943509086004    1.52491866150970
C           6.36210612410998   -2.34504131370480    1.61370171847867
N           7.47549044554834   -2.09359145130833    1.72730024829078
C           4.23390500386667   -2.27374864485753    2.65399554613008
N           3.65052606814198   -1.96285832553578    3.59243446446763
C           6.42185809521898   -3.80355204792560   -1.19546062325102
C           6.55321343559042   -4.54878593646863   -2.36939562697339
S           4.97730877960996   -5.09860926659129   -2.95205837481060
C           7.75209343855559   -4.95021939883809   -2.98306939766275
C           8.94848854587087   -5.03405274134124   -2.29837329215766
C          10.23218036527473   -5.38289867831367   -2.78172282724243
C          11.20211478103857   -5.45767880889883   -1.81725070158858
C          10.72888562160936   -5.18696165562549   -0.51997580819513
S           9.02703809559317   -4.82295972243720   -0.56219720101584
C          11.33517868757644   -5.13418460806794    0.73057461408818
C          12.66985983999731   -5.24459825158848    1.15735110661492
C          12.82823746804265   -5.06610269936146    2.50566051917360
C          11.62641025416637   -4.81920871739749    3.21188312252827
S          10.28679866183844   -4.83143634572544    2.09337202105832
C          11.49319150844786   -4.55905192587507    4.56163416984112
C          10.30022195639956   -4.32942472513299    5.25742342766499
C           8.97093348619547   -4.45214892371784    4.83207560149517
C           8.06696970032086   -4.12432261197279    5.82209282200264
C           8.67569972103101   -3.73093113044416    7.03898196606283
S          10.38349397241877   -3.79876476342572    6.94143573519345
C           7.66362009207838   -3.40046102821936    7.95999044660226
C           6.40967156808732   -3.60442473772263    7.33188287643537
C           6.61953854050717   -4.07103156920031    5.98394415524167
C           5.64742923143344   -4.40015363128701    5.08082339403278
C           4.27730881172904   -4.34853630443438    5.41732139231221
N           3.16248900458009   -4.34484751719397    5.68882413391746
C           5.91165061106728   -4.82639561393180    3.76728222599348
N           6.07076372910232   -5.16137519470985    2.68025081232389
C           5.33559816542605   -3.28037489059097    8.14368470925672
C           5.72994296284749   -2.82458622251857    9.39309045502670
S           7.49421873894362   -2.82843224968582    9.55964314189811
C           4.86234564388058   -2.33841925230457   10.40265406759744
C           5.19139060853635   -2.06800986720391   11.70948298060192
C           4.14554631412927   -1.48018919187277   12.50071825281497
C           4.19808550781446   -1.14399678908691   13.82926615313448
C           5.31285178028503   -1.33838744887114   14.66491936582746
N           6.17777137419833   -1.46595533106660   15.40823681493835
C           3.08145119258987   -0.55777486884238   14.45851214331583
N           2.16924866806051   -0.07938896189340   14.96398390967741
S           2.71834161952563   -1.19342929944780   11.54983632932528
C           3.44015780206808   -1.99039313807522   10.02013098286477
C           2.53961829673418   -3.17375228693367    9.75103023472665
C           1.21349036237970   -2.92905404481918    9.40334549812455
C           0.34535880615092   -3.97777208595011    9.16819443220208
C           0.78797017811598   -5.28549258509604    9.28573667008699
C           2.09423162183222   -5.53441910650199    9.66474488890277
C           2.96586375945976   -4.48569077007830    9.90674948412779
C           3.48999999579502   -0.96750622217630    8.89694294217251
C           4.10219281323759    0.25656394487214    9.14601406245109
C           4.24019698374630    1.19328983932455    8.13939672763003
C           3.78244938516303    0.91254847021615    6.86299824705565
C           3.17483404483495   -0.30328036931971    6.60538851946959
C           3.02140891939392   -1.23604697548276    7.61692899116138
C           6.45287216931950   -2.35850769349559   12.26157409414721
N           7.49093480534818   -2.62260315611428   12.67333477338895
H          -0.61198617292122   -2.25566293515740    1.81248941592068
H          -0.28376184244853   -0.36475387356816    3.33799350129720
H           0.19011328747241   -0.76254913074661    5.72908665770256
H           0.29351890590962   -3.08179473836715    6.58514485004297
H          -0.04552549585536   -4.97102880149514    5.06686572379177
H          -1.01544267915098   -7.52423541094126    1.80633760650274
H           0.48747564786321   -9.43672769493548    2.01802883732992
H           2.74854821813144   -9.14376959970924    2.97480123606388
H           3.47124371295622   -6.90227143095179    3.72584013402654
H           1.97157473322146   -4.99447416499241    3.54323877088356
H           1.79718078814094   -3.26243168271343    2.00295373214827
H           7.23093132783676   -3.27205210030971   -0.73293963847076
H           7.72253747750810   -5.28678928301910   -4.00972665441689
H          10.40777669880289   -5.56410199695463   -3.82753963344728
H          12.22870034077880   -5.71321560430016   -2.01128757007986
H          13.47684749831957   -5.43322013118366    0.47199914233648
H          13.77742782733098   -5.10020050325196    3.01081313240624
H          12.40787413665781   -4.50157886002302    5.13713867842700
H           8.68413683363713   -4.78237775237824    3.85233462484165
H           4.30988135713921   -3.39215655031191    7.85474160160714
H           0.86566592633599   -1.90839974889161    9.32728711107763
H          -0.68096643788282   -3.77420908354002    8.90093969413818
H           0.11216194670555   -6.10540038990269    9.09645420814332
H           2.44221027047370   -6.54980423934289    9.78071921883816
H           3.97838540626066   -4.69990103572069   10.21639924057414
H           4.47062209998852    0.48369312852859   10.13671973360531
H           4.71305090933073    2.13990064086479    8.35361164641493
H           3.90064849407753    1.63874396944734    6.07300681533656
H           2.82788329017769   -0.54488249086297    5.61287340441113
H           2.53961600057427   -2.17370817219963    7.38497937853494
