115
 SCF done       -218.446224621778          0.000728657478
C           4.46360261828027    3.30886333963204   -2.00787815235891
C           4.62676538364143    3.43641587023437   -3.50430901903488
C           3.90308875501892    2.64927491869011   -4.39055978074666
C           4.04606350598913    2.82638729701264   -5.75646461811974
C           4.89621326760379    3.79932494487870   -6.24912860437857
C           5.59245488210160    4.61229600879845   -5.36907762256728
C           5.45355911194613    4.43794252523147   -4.00598830595530
C           5.75820319722657    3.25627422341414   -1.21975954571639
C           5.70289199425344    3.41734907032757    0.16085013356903
C           6.84769996372761    3.31576231592088    0.92789219491395
C           8.06418289491410    3.04264421967861    0.32534365626758
C           8.12440343584472    2.86963639793513   -1.04584038058455
C           6.97922603022802    2.97201853484322   -1.81731096338929
C           3.60813442906329    2.14480170155396   -1.57620761522159
C           2.36749018691637    2.48404866111952   -1.09497180807719
C           2.10518538140234    3.89562847799799   -1.01505943437198
C           0.95085677022949    4.50364887746273   -0.59566349878587
C          -0.20431642029955    3.82722572509827   -0.16101528430775
N          -1.18194727274854    3.35360842383565    0.20791657667197
C           0.85722690655062    5.91002571290481   -0.57364883509115
N           0.79124827596348    7.05533289896514   -0.55821912466175
S           3.48884859386716    4.82619058894271   -1.51570761597143
C           1.37547502133942    1.53229443977788   -0.78621697297818
N           0.58231594665141    0.72600185733586   -0.59708160655624
C           4.12703697582915    0.82354502974104   -1.63785076695936
C           3.75377951651036   -0.26604988284026   -0.86601408914963
C           4.48452160089215   -1.40691901291144   -1.17764143812541
C           5.41363856167974   -1.19672536512314   -2.21867127136186
S           5.41785738315481    0.41317899297907   -2.77100216888779
C           6.06660847876920   -2.41774011276321   -2.49381463238924
C           5.56666888182605   -3.40266041958607   -1.62175515637864
C           4.56703148022981   -2.79297750941303   -0.75388862352072
C           3.87989595777401   -3.39255253003918    0.25946901610708
C           4.04758133934652   -4.75887204974382    0.57122815493500
N           4.18520636129418   -5.86891291489852    0.82225486462123
C           2.98333281857078   -2.68303942706888    1.08814352291740
N           2.27658463111342   -2.11248886446272    1.78686298821919
C           6.14714169022621   -4.65147186641001   -1.81894988551367
C           7.08160225087916   -4.63251638797979   -2.84528263961683
S           7.24691419696561   -3.03984216786959   -3.56495845936613
C           7.84598053848121   -5.72452921558050   -3.32165126271386
C           7.90801662094930   -7.00026172962666   -2.78377796076420
C           8.74918344753825   -7.83473717523966   -3.51258654134861
C           9.33597243655485   -7.19396450361998   -4.62830209100553
S           8.85335483728779   -5.55826747905909   -4.75622787053208
C          10.14845765396623   -8.11924305506569   -5.30964832701995
C          10.08498512169587   -9.35372612814326   -4.62339527835674
C           9.22051617496029   -9.20460299100354   -3.46044454473714
C           8.95208692701048  -10.14836476625540   -2.51267136592038
C           9.53702513091076  -11.43329487835820   -2.53992032514065
N          10.03761901482586  -12.46479371957298   -2.53963741422530
C           8.10911793845335   -9.88032052591320   -1.41273870197530
N           7.43563261324691   -9.65386340257999   -0.51325184926248
C          10.82296761829111  -10.35636176475060   -5.21905659247436
C          11.47537805448764   -9.92535754296224   -6.37824245981022
S          11.15370933465617   -8.21380519509919   -6.69207719194309
C          12.29161871346328  -10.64063976454823   -7.26092562081609
C          12.53066753068106  -11.99998245325970   -7.24413633347421
C          13.38819327147576  -12.71177307581950   -8.11690463327991
C          13.43205629586878  -14.05957427871575   -7.89259772490433
C          12.60067322442344  -14.48144987291264   -6.83740372374575
S          11.77092850281713  -13.11991765317235   -6.13578699486958
C          12.37212900364224  -15.74382232158786   -6.30584590210120
C          12.94957934844659  -16.98748121670229   -6.62932436131493
C          12.49419594891071  -18.01676406180759   -5.85309876477357
C          11.52974492082981  -17.63349205851792   -4.89351314215687
S          11.22107958813422  -15.91607154684914   -5.00669483608233
C          10.88460562635146  -18.42493009685170   -3.96200575167143
C           9.91817866707763  -17.89710566819187   -3.10682550808281
C           9.27104264732368  -18.57504148222128   -2.09896123985091
C           8.25592390584299  -18.03407087503298   -1.22899883042418
C           7.58552356877002  -16.84351358712952   -1.38465597251014
C           6.59250863438040  -16.37902326913465   -0.49892582648971
N           5.77510410942436  -15.94575672752162    0.18191128778522
C           7.74078128154820  -15.94634888152978   -2.46120538920802
N           7.77760542341915  -15.17767777582157   -3.31483489709432
C           8.01314964092634  -19.01175761430077   -0.17171309634246
C           8.79843681911312  -20.17075482863591   -0.43738585573710
C           9.58757626921557  -19.95448218618393   -1.66471911299945
O          10.34851873342894  -20.74165834758556   -2.19273005377609
C           8.77580164735146  -21.25902186594629    0.38540729100833
C           7.95807138304249  -21.23568348876804    1.53849705397800
C           7.17563096607280  -20.07798859560192    1.81381934509385
C           7.21466335495397  -18.96721963426575    0.93877200286475
C           6.36966345101369  -20.06147138798582    2.96967664823291
C           6.33695585753282  -21.13651220535570    3.81593600222756
C           7.10761475907324  -22.27631798381087    3.54417349621964
C           7.90022521482078  -22.32510722112753    2.42922603009439
H           3.21574910384293    1.89994197489477   -4.02492291855045
H           3.48158704147385    2.20346729024772   -6.43368430468713
H           5.00497645196342    3.93563027800078   -7.31429276727803
H           6.23979022324620    5.39030792215891   -5.74440978600730
H           5.97765182228720    5.08733695103295   -3.31955044250026
H           4.75845367335857    3.63149481631566    0.64063729021322
H           6.78704172665042    3.44840207666135    1.99733092005783
H           8.95968420548203    2.96349397325549    0.92278476153135
H           9.06711624099762    2.65162768007330   -1.52491081288272
H           7.04312392368613    2.82636742728291   -2.88506554566919
H           3.00177643706989   -0.21356202331296   -0.10044543251276
H           5.90382169757418   -5.53736838146069   -1.26264082414866
H           7.36695687878599   -7.29473243322969   -1.90383323170803
H          10.90143131825981  -11.34994881885247   -4.82393558384978
H          12.77251289759307  -10.07387931774950   -8.04756277080616
H          13.95184365268114  -12.20777059447044   -8.88222861614211
H          14.03049134733228  -14.74922084120132   -8.46033714669773
H          13.68247285556401  -17.09234305270227   -7.40945070473596
H          12.82043961829618  -19.03770095912177   -5.94274143995570
H          11.13729361002668  -19.47325347236259   -3.89723662411350
H           9.67496482176237  -16.84956777106746   -3.24445146363803
H           9.37841223292571  -22.12737855588165    0.16331456509508
H           6.61412193530755  -18.10380363604437    1.17704853561043
H           5.77771878973060  -19.18122171426835    3.17368852496925
H           5.71697986389158  -21.11374454218108    4.69971158053495
H           7.07083871113310  -23.11557224444089    4.22271708730528
H           8.49604216139847  -23.20058847602246    2.21539815488413
