122
 SCF done       -227.598934440641          0.000575016966
C           1.39506662164952    1.44045195201745    1.58443240293390
C           2.32810297614148    2.62383146627867    1.46057570563601
C           3.24688304067542    2.76024771183276    0.43029098770738
C           4.05842565606002    3.88138164241668    0.36357249223930
C           3.95451172474592    4.87949026008595    1.31428141150746
C           3.02401333747748    4.75951399991963    2.33416643381174
C           2.21475726001934    3.64306383761197    2.40390422039077
C           1.53271392040743    0.68500694086438    2.89434159652212
C           0.60840610911061   -0.31325272903486    3.18721506116274
C           0.71916634110994   -1.05323650985677    4.34859340786011
C           1.75865144810349   -0.80936643321799    5.23091419783362
C           2.68289654483157    0.17973203606556    4.94569770240838
C           2.57280028668086    0.92617306105670    3.78506462971310
C           1.47261394874423    0.46045797400961    0.44147356460945
C           0.32411212764488    0.34496270115351   -0.30396532544160
C          -0.74101330224448    1.23778528929569    0.06487903382554
C          -1.94196067732432    1.38767869366812   -0.57935211137639
C          -2.27408175011458    0.73485463213414   -1.78087700247897
N          -2.58334565571342    0.26404692106214   -2.78056178404048
C          -2.91702309710427    2.27671831683962   -0.08511817001788
N          -3.70896334124104    2.99712429059501    0.32703920227740
S          -0.33060715158127    2.15776784117567    1.48097212204991
C           0.10984706414451   -0.70370219582163   -1.21900337647705
N          -0.05652884188059   -1.62499828083310   -1.88183171824357
C           2.64965120104742   -0.29953470727655    0.21937305359574
S           3.70986423278567   -0.73750894034289    1.53714065495620
C           4.78010143817565   -1.64058497956456    0.50052291652262
C           4.33849867258068   -1.56421452764652   -0.80697911553572
C           3.14965079727638   -0.80308936822629   -0.98561444319187
C           2.83240528359599   -0.65820592979834   -2.35868181335762
C           3.71149432665826   -1.32254054130336   -3.15930619172681
C           3.72210837573760   -1.41974720091722   -4.62568497757195
O           4.55107834482456   -2.03905234196012   -5.24544109098529
O           2.71414126745132   -0.73812877801965   -5.17235404377875
C           2.62295702105918   -0.79224047572995   -6.59017577891704
S           4.98468954547941   -2.15239745081394   -2.30191989947982
C           5.90965881652338   -2.29597327393294    1.03638834020389
C           6.36277931847138   -2.22571230460182    2.34389264781357
C           7.51458254045483   -2.98203702995412    2.53498736725939
C           7.93474346413708   -3.64447188539529    1.36541354781095
S           6.91681154847090   -3.32298474284278    0.02982293527548
C           9.10931176954690   -4.37399224045016    1.66161386220671
C           9.44426023756611   -4.16613700084600    3.01222528730882
C           8.44756164519918   -3.28890954023341    3.60700840533170
C           8.39263945149113   -2.84483488714056    4.89558860933480
C           7.35860427529838   -1.99781464750883    5.34751434361528
N           6.51541500316386   -1.31074367347653    5.71082080008760
C           9.36359828978121   -3.20484615952014    5.85384160660716
N          10.15403318465093   -3.49804008591256    6.63069735198289
C          10.60083503449059   -4.84265136645692    3.39590404232235
C          11.14098550537198   -5.57769624648377    2.35486911612324
S          10.20704004244595   -5.41288761599762    0.87085050940005
C          12.30103667679277   -6.40429116619603    2.36401032902547
C          12.58919449922249   -7.25833947760441    1.32270195794410
C          13.69729248760293   -8.09480080986686    1.25496645727376
C          14.66168679466156   -8.14098896649299    2.36326677929798
C          14.57351494454989   -7.38580516339990    3.48167583333881
S          13.32177732125965   -6.25536109364225    3.78170080026291
C          15.61365939266123   -9.13409838451456    2.00553583203066
C          15.26683030777917   -9.68872992444712    0.77387767191235
C          16.16311723529648  -10.70139140645461    0.36970184310593
C          17.14815742571466  -10.88345899324296    1.28811742557019
S          17.03037410767262   -9.84371365372844    2.66841284902754
C          14.07774818567585   -9.04203743650838    0.27645415756661
C          13.49789247424549   -9.42852487853959   -0.94803067393519
C          12.49795291214607   -8.82837299720757   -1.65940179837093
C          11.91617855455315   -9.34009760392467   -2.84480001240678
C          12.11265115199872  -10.56615984740113   -3.44817398433656
C          11.25312202998269  -10.84439092618763   -4.56494138432240
C          11.23726637327685  -11.96805838664848   -5.35339912206678
C          12.11365680061254  -13.06130088599477   -5.23608530080339
N          12.79044572268179  -13.98828426161019   -5.21941950604515
C          10.29253570351385  -12.08650687226400   -6.39248259166648
N           9.51863651681723  -12.17451531804711   -7.23525923032941
S          10.11224130109561   -9.55827335815719   -4.82996033716879
C          10.91803081666408   -8.45648734847137   -3.55473514843827
C          11.58109645664995   -7.33927713129200   -4.33710501765509
C          10.81555144327148   -6.63976788259208   -5.26750105467529
C          11.37202859958059   -5.62049834873385   -6.01477688680567
C          12.70702345175756   -5.28827277833427   -5.84965973084195
C          13.47545594761152   -5.98427404816976   -4.93513045140127
C          12.91920454639173   -7.00594235468301   -4.18214591950494
C           9.84056757835367   -7.97477953959433   -2.60501582280337
C           9.15158925232712   -8.92236094648374   -1.85280309184203
C           8.14018489541344   -8.53927397215011   -0.99314836627207
C           7.79444845807651   -7.20278127226691   -0.87986445728656
C           8.48173941607022   -6.25492103536847   -1.61646665868122
C           9.50736368516063   -6.63438096471547   -2.46591436759269
C          13.03478593392636  -11.53875247560755   -3.02361596851971
N          13.79371435272095  -12.32712098530611   -2.67413176767245
H           3.33984070307409    2.00159225354689   -0.33215099182605
H           4.77020622564674    3.97141533222275   -0.44330529542743
H           4.58744082599722    5.75181317038454    1.25685255614363
H           2.92420276170105    5.53896699056554    3.07396009596690
H           1.47965364301942    3.55524359323523    3.19140617434206
H          -0.20651998001052   -0.51217538468804    2.50513609350709
H          -0.00740188237648   -1.82262090967632    4.56135102918112
H           1.84837441807609   -1.38971392153573    6.13630441053287
H           3.50085413290676    0.36999106905867    5.62329875688268
H           3.30895890078941    1.68502953831153    3.56909270136688
H           2.01371536230326   -0.08983100905471   -2.75694757125417
H           1.70017395353057   -0.28158600819523   -6.85149286111081
H           2.59919768589626   -1.82975806086092   -6.92826272727935
H           3.48202578570157   -0.29292213233128   -7.04341600770567
H           5.86492448701508   -1.64089211570596    3.09649434691719
H          11.03057628999643   -4.82024717247729    4.38122632985122
H          11.86522422663470   -7.28511703919816    0.52123866923558
H          15.29733204065198   -7.44885442956141    4.27878666154668
H          16.08504877793383  -11.27044205053872   -0.53877266496065
H          17.96145122962049  -11.58120470945350    1.24747933603397
H          13.94007821548088  -10.32042302315717   -1.36682095631311
H          12.09859240200235   -7.87717347391859   -1.33719008872526
H           9.77724962446899   -6.90582680661573   -5.40783208733927
H          10.76289310373708   -5.08988892490926   -6.73056450637471
H          13.14590813190924   -4.49585752728140   -6.43665916835714
H          14.51898073230021   -5.73960615296305   -4.80441887452039
H          13.54168471253473   -7.53714038036028   -3.47751168922267
H           9.40268482318792   -9.96922596197146   -1.95078968158725
H           7.61421382566171   -9.28782745625924   -0.42009428055772
H           6.99201504787358   -6.90265253232790   -0.22263615638195
H           8.21696394069673   -5.21035580343130   -1.54062982388543
H          10.04054687434879   -5.87861154071043   -3.02182774204985
