98
 SCF done       -199.796085324420          0.000540951649
C          -7.02445251794363    3.86775724751781   -6.51808358018411
C          -7.35380587814285    2.87264363122037   -7.35461077928950
C          -7.80361723963174    1.61358866624198   -6.81601023747300
C          -8.15559204434801    0.54337023494671   -7.61656339019306
C          -8.59150973580455   -0.67041172180060   -7.06044055611231
N          -8.94855033814563   -1.65313137308094   -6.58362482688816
C          -8.09585819221759    0.61122338318023   -9.01771827150930
N          -8.04351261636404    0.67370294315850  -10.16350355232962
C          -7.85913114168430    1.54157523788635   -5.39411546963287
C          -7.50410161538800    2.60926408446773   -4.62205723488273
O          -7.08374287344231    3.78165282183647   -5.17805545380557
C          -7.50877069075281    2.64996936341501   -3.19709948375168
S          -6.93361848426877    4.10503455705545   -2.43460294021750
C          -7.18423986025216    3.47619622812122   -0.83596928129219
C          -7.69919827394643    2.19512042846245   -0.91465213695961
C          -7.89035211228504    1.70927240206844   -2.24116511041760
C          -8.41701531343799    0.39396722533507   -2.23815159071983
C          -8.60522566669041   -0.08319687038240   -0.97619188384904
C          -9.13098309476885   -1.39306911143757   -0.56937802448609
O          -9.27844380809047   -1.73158067220762    0.57844164720197
O          -9.42166253212678   -2.15373545597174   -1.62923486894314
C          -9.93891077133411   -3.44681596005717   -1.34528980595531
S          -8.15769906542483    1.03239968150051    0.28712101722811
C          -6.85659945362983    4.22461047258478    0.32549535624572
C          -7.04301886135629    3.84821526175824    1.62721997863345
C          -6.57016784893600    4.79581462939288    2.56267659307820
C          -6.56942724667868    4.68966053401945    3.96944329669881
C          -7.05131878680020    3.49270603133199    4.62655014477428
C          -6.85168797063561    2.19133539224561    4.26293415753668
C          -7.49759924388376    1.27812769063969    5.12405736335423
C          -8.19403765287176    1.86191805427319    6.14303776085282
S          -8.04537140201074    3.58419006907206    6.05568715247534
C          -8.99124912741595    1.21560025807994    7.21482991865836
Cl         -7.41077708446910   -0.42422994784929    4.88240125329718
C          -6.07274780208890    5.78174635520120    4.66886943988688
C          -5.55561987267031    6.94323637492441    4.04028790094804
C          -5.53262787193070    7.03972887344638    2.63209383388714
C          -6.05211187048640    5.95500224425400    1.93264560421985
S          -6.11379527742203    5.80480860153103    0.19735836084384
C          -4.99032755424130    8.18735070098203    1.93473863147490
C          -5.45169849504885    8.75821703209250    0.78197826656621
C          -4.65799533176481    9.84273719385860    0.35175592220261
C          -3.58262845552586   10.10949560867494    1.14894966388105
S          -3.54308009085881    8.99880123268109    2.47435360399944
C          -2.55005443965024   11.16510797754178    1.00376603248021
Cl         -5.03230283215704   10.74635499549366   -1.06513749151202
C          -5.11151884505286    7.89596985785630    4.98457938823295
C          -5.23694497951847    7.48278457843731    6.28284430535695
S          -5.94766300351511    5.88896892267718    6.40196518909359
C          -4.84219212447562    8.19864421390736    7.44767616229945
C          -4.22888684957717    9.43807817306892    7.49096817929117
C          -3.95174326788255    9.83467978858993    8.79849616973286
C          -4.35728070114254    8.89014574512226    9.75515440999728
S          -5.08206065065320    7.51688160729856    9.04324018943284
C          -4.01959776898702    9.38225342454820   11.04301507916668
C          -3.40291788315138   10.63815410938212   10.89689892819636
C          -3.34071889320583   10.96471643619079    9.48243733746610
C          -2.81788963758132   12.08757761332989    8.91095414457283
C          -2.80909054577055   12.28154649671684    7.51348923310310
N          -2.79931876018147   12.43925121966505    6.37763414911160
C          -2.25064938881848   13.12614180430364    9.67930293271320
N          -1.79200336541159   13.97156702929446   10.30325787889951
C          -3.02357066400903   11.19892102065951   12.11666489859378
C          -3.34648624083800   10.37908809622497   13.17990994894564
S          -4.13267606077779    8.89468262581958   12.67240344015748
C          -3.09418433453096   10.63711239506195   14.56771040496856
C          -3.42485015714103    9.78668900688996   15.57912518909795
C          -3.13421804420582   10.11356123382489   16.93750102709857
C          -3.45373296569058    9.27310591564662   17.98457544424740
C          -3.16101116355961    9.60483561803690   19.31788148749817
N          -2.91977067453320    9.88200015872967   20.40607509233882
C          -4.08921789013937    8.03849666890865   17.76998562474157
N          -4.60747370118500    7.03102289456132   17.58019811860699
C          -2.48181243380363   11.38399958142243   17.13409769884392
C          -2.19668503456824   12.15438130743938   16.07409019233799
O          -2.47846073822403   11.82828988860811   14.79950158301717
H          -6.67852937983829    4.83873871748043   -6.83901988735010
H          -7.28498945600536    3.00211035120672   -8.42177714531049
H          -8.17990158334116    0.62501585506389   -4.93230781862953
H          -8.65816499076979   -0.19488593734046   -3.10254637143140
H         -10.06886319502151   -3.93496883998616   -2.30732853568308
H         -10.89365509274575   -3.36559343479517   -0.82174667040768
H          -9.24034730938232   -4.00503102083207   -0.71884002413498
H          -7.52558561209987    2.93090176370389    1.90501873446956
H          -6.23217297699560    1.88130064519759    3.44215077487225
H          -8.95258470000670    0.13575375189291    7.09726401808506
H         -10.03041609276418    1.53990724570172    7.16914540682270
H          -8.60070928186671    1.48063485812310    8.19670045657973
H          -6.34640734048212    8.45412651777403    0.27176297050534
H          -1.57215356247568   10.72315534861939    0.81268062937483
H          -2.47719977980389   11.75699566191875    1.91519319074473
H          -2.80833759350627   11.81830562914206    0.17406461646873
H          -4.71753983526780    8.85754497095154    4.71794385706316
H          -3.99428978817116   10.00977305390645    6.61292673191082
H          -2.53661754580083   12.14866491551037   12.24232828019700
H          -3.91242620030861    8.85063191626558   15.35379942954519
H          -2.22888737903608   11.70338049010334   18.13140376110977
H          -1.71078609771586   13.11623750067036   16.13879283759787
