84
 SCF done       -170.091071774510          0.000681050766
C          -3.07575106462167    0.57631014092460    4.53252437607949
C          -2.92119761123618   -0.72157098001710    4.23557177477396
C          -3.28330454962331   -1.20274306370733    2.92496073236720
C          -3.14870266754720   -2.52849862853499    2.56567054872943
C          -3.50663051146373   -2.99288146523039    1.28828137856715
N          -3.80320896635975   -3.36828998734132    0.24422546468435
C          -2.64758572016532   -3.48927417489528    3.45989696488571
N          -2.23833109805687   -4.26917113118881    4.19721290531362
C          -3.79111340530568   -0.21338349896227    2.02988373464283
C          -3.91213774971780    1.08505660799819    2.42519662586090
O          -3.55774482555738    1.49471989776915    3.67581927921782
C          -4.41268678142968    2.15242776797880    1.61431312819638
C          -4.85870242428039    2.13172254230990    0.30825522134701
C          -5.27562070206626    3.39458454049591   -0.11401786302772
C          -5.14125464300426    4.37960338555621    0.88694188284829
S          -4.50341548840110    3.75237587837233    2.33784492773112
C          -5.59432922610980    5.61562738884254    0.36938782479307
C          -6.01525972403396    5.41437068404170   -0.95619322558032
C          -5.82439227827122    4.01327592187300   -1.30493663618520
C          -6.10602699215588    3.42546690390396   -2.50489823035420
C          -6.63477619906431    4.15946248709999   -3.58615422891970
N          -7.06490089345552    4.76464895710766   -4.46093242077302
C          -5.88625137150288    2.05147994064260   -2.73815474189588
N          -5.71173213091564    0.93434212241747   -2.92655422208027
C          -6.49119561398257    6.57124587057369   -1.56202409749629
C          -6.44296840004191    7.66602842101287   -0.71077232340161
S          -5.78594113278229    7.24369614733240    0.86326467398759
C          -6.85043862460231    9.00056123714495   -0.99803045105480
C          -7.48212988751835    9.33461601941870   -2.17465455747250
C          -7.89797432760726   10.61566898124779   -2.52364790041633
C          -7.79925436485904   11.72547060691111   -1.56532098551286
C          -7.20745185589581   11.62823125262586   -0.35513195991278
S          -6.48911707983572   10.18994385250179    0.24495640135659
C          -8.45166240325095   12.82402163534008   -2.19000349188297
C          -8.91999285845823   12.43753309672518   -3.44715202092328
C          -9.57664765968624   13.49225322463816   -4.11854654337073
C          -9.59220525194753   14.62513341886974   -3.36892987999552
S          -8.81258261935269   14.46406889254101   -1.83056519830270
C          -8.55512792121537   11.06666778302224   -3.68790225551503
C          -8.83435465993272   10.38470254309518   -4.89662432142337
C          -8.20272935297161    9.26935871767320   -5.35300643417933
C          -8.53139727643133    8.57537434533220   -6.54170388469006
C          -9.55682329962869    8.81022424047821   -7.45026165311648
C          -9.55324962524430    7.88732070388254   -8.48958927456211
C          -8.52142959146388    6.93541009685274   -8.38031001138699
S          -7.55927795567005    7.18221573155809   -6.99354330511371
C          -8.60927541378791    6.05067641705159   -9.48129298059353
C          -9.69940776551725    6.43755584324130  -10.28633721668242
C         -10.32351932560097    7.60532092162453   -9.69419832408010
C         -11.39573348893776    8.30469339186051  -10.16716543099706
C         -12.06418174895840    7.94284234956112  -11.35535736046038
N         -12.60924791407892    7.65233119056308  -12.32139312354626
C         -11.90040005455612    9.44042370223753   -9.50086258677633
N         -12.30730205889708   10.36688352070547   -8.96099803860507
C          -9.86371810880865    5.61721771622785  -11.40216142289431
C          -8.90752512409859    4.62195196500204  -11.45289097845141
S          -7.78859193015030    4.69057054556447  -10.10070972005853
C          -8.77079116323945    3.61550372174267  -12.46354958726586
C          -7.75492275484918    2.70824973152550  -12.51107356858065
C          -7.67996644950223    1.74469989563422  -13.56019940039600
C          -6.65163378250944    0.82812132169227  -13.65112251071234
C          -6.58821615160712   -0.11404149345058  -14.69082226432639
N          -6.54192522592255   -0.88140894257624  -15.54450232042732
C          -5.60617198384695    0.79858688502305  -12.71299973855713
N          -4.75457057569911    0.78888628235583  -11.94207253105090
C          -8.75196233561183    1.80398863642816  -14.52240917212984
C          -9.70989328858747    2.73325466227439  -14.39170543559166
O          -9.75603522786953    3.64386724332537  -13.40246032026024
H          -2.82942810566185    1.01366437025294    5.48819537795669
H          -2.52990012639277   -1.41083600180350    4.96520946570260
H          -4.08116192915988   -0.50383867132323    1.03361904348224
H          -4.87927093576869    1.24646539477219   -0.30011292092812
H          -6.84745892115906    6.61478667197752   -2.57375628583415
H          -7.70476382261996    8.52717935145144   -2.85335947480681
H          -7.13553613837723   12.46126365415795    0.32607482145729
H         -10.01601623159957   13.42302042899450   -5.09687291724132
H         -10.02118283245217   15.57458598136445   -3.62309599968127
H          -9.59716964663768   10.83735863748644   -5.51603363952044
H          -7.35567637927881    8.87402069744673   -4.81216362847588
H         -10.26356414728814    9.61242344153577   -7.34737560197688
H         -10.62863399207936    5.72614935124957  -12.14920514493007
H          -6.99078652618930    2.72007748677904  -11.74910135825224
H          -8.77194365045427    1.10313065162751  -15.34033435660444
H         -10.54175595606924    2.84376399007892  -15.07091907477317
