82
 SCF done       -165.813544280319          0.000592707083
C          -2.74983571281504    0.53898491839797    3.02233506134903
C          -1.85454108246943   -0.40001214200001    2.67893748481207
C          -1.00395896887411   -0.19175258139876    1.53404310364482
C          -0.07544588522528   -1.12733941435046    1.12019589243514
C           0.74359965948471   -0.91421602449470   -0.00108564796226
N           1.40997704845978   -0.73799964158873   -0.92010046909405
C           0.10154361264630   -2.35134490886832    1.78646718153395
N           0.25183613507923   -3.35565768984435    2.32308110226898
C          -1.18859340223897    1.04708402186646    0.84862764972711
C          -2.12730153744128    1.93835469888163    1.27484417880985
O          -2.91438305698261    1.69386633061222    2.35514496947523
C          -2.41727195488673    3.20224427472888    0.66744595846157
C          -1.82246160705974    3.83902071817566   -0.40429553154966
C          -2.42785285410891    5.06839646981919   -0.67072331812627
C          -3.49234442821580    5.35101117095912    0.21296873288080
S          -3.74166453756387    4.12204400827460    1.36725818175920
C          -4.05065501137094    6.59557082860537   -0.13208567789361
C          -3.34442742600836    7.12060737049232   -1.23914726430917
C          -2.29641547084444    6.17170736258034   -1.60416010169594
C          -1.38468696233349    6.30701979786239   -2.61063751101903
C          -1.36234460968466    7.44053181580656   -3.44913792509873
N          -1.34427594597899    8.36309546279575   -4.13020404446771
C          -0.40521153123848    5.32686560363844   -2.87572995151875
N           0.39342236281051    4.53362335765256   -3.09288660889244
C          -3.83523395599343    8.34561330411798   -1.65457357954026
C          -4.92142478749459    8.77537413481539   -0.87851754587361
S          -5.31167104026872    7.61175373846125    0.38931531626414
C          -5.64502071876801    9.96050969635902   -1.05433193222618
C          -6.72276052546549   10.36920751355516   -0.29707395701861
C          -7.50214015900896   11.54193350427467   -0.44139268017458
C          -8.52152491047528   11.66070105025638    0.46394461683938
C          -8.59406336661528   10.58679453797048    1.36992605862388
S          -7.33242232675201    9.42641439543740    1.03989295260234
C          -9.44608589776628   10.29634769412650    2.42796156859329
C         -10.55138968725052   10.96291102127103    2.98307447662060
C         -11.11059820306314   10.30529595933930    4.04649407371481
C         -10.47612178084458    9.08723576264095    4.38692008329080
S          -9.14251999220729    8.81076362808614    3.29377966486146
C         -10.80698056612091    8.23639242900490    5.42326251141414
C         -10.16516087053843    7.03853995902816    5.75880509968253
C          -9.11169074465307    6.37435567255158    5.11879192013931
C          -8.72953270146275    5.22455725294040    5.77956732660176
C          -9.48141428269166    4.96400639053525    6.94687709828261
S         -10.67721362993791    6.16611299280708    7.20871509968434
C          -8.98910160855144    3.78479033090962    7.53521622664769
C          -7.92541315478425    3.29092967841961    6.73956680455959
C          -7.73067840747305    4.17392526030654    5.61525094179762
C          -6.80339516423075    4.06161510307864    4.61534017599618
C          -5.89435724520502    2.98619284884488    4.55680431343515
N          -5.15431254488493    2.11151410346981    4.49440379417968
C          -6.67133773752416    4.99729294323022    3.57036934740141
N          -6.52949083647278    5.74157104322075    2.70817426950624
C          -7.35348419208361    2.13112040539308    7.25794955292559
C          -7.96221069254240    1.73672954654203    8.43203183079461
S          -9.27506411499601    2.81035141129192    8.90898648554753
C          -7.64353374309811    0.62503524784994    9.27044960686027
C          -6.62926425529051   -0.25514436558683    9.03112891968885
C          -6.36053870203595   -1.32531938459582    9.93298309704586
C          -5.33144643646837   -2.22249266018915    9.72134870308755
C          -5.06276190155896   -3.26826428971745   10.61888658864840
N          -4.85102531780090   -4.11968746875622   11.36031057679712
C          -4.49953615372139   -2.12201741306152    8.59368137053416
N          -3.83420612173203   -2.01799031589189    7.66295354724915
C          -7.23301881568396   -1.39721464059825   11.07877886482403
C          -8.20840401097026   -0.48910540742491   11.22727970866292
O          -8.44467102618425    0.51792143550962   10.36665989744306
H          -3.42578988806203    0.46889945757355    3.86070805966880
H          -1.76526757352203   -1.30873924521256    3.25068906611445
H          -0.58298711101756    1.27013772070711   -0.01455262370544
H          -0.99578870999434    3.42935679583324   -0.95507244468058
H          -3.45087561009539    8.92353867205306   -2.47566282725463
H          -5.32886372452126   10.60528300641896   -1.86364202523124
H          -7.29085151130613   12.26361997051679   -1.21077987807618
H          -9.21068666359341   12.48568211194376    0.49634924420044
H         -10.90808157374943   11.90062673627615    2.59578867658203
H         -11.96237419310997   10.66484544860427    4.59660793023924
H         -11.63495954744595    8.53653011296554    6.05193986288160
H          -8.65512604064167    6.71118658857464    4.20907599097813
H          -6.53455960407087    1.60262989912020    6.80665700198454
H          -6.01389546661012   -0.14234571658526    8.15427719136790
H          -7.09321726141434   -2.17953178401725   11.80608937583966
H          -8.90127002345388   -0.47498963316793   12.05494915749856
