68
 SCF done       -139.357375767743          0.000646895503
C           1.05884357470142    0.79457055444508   -2.41967438388278
N           0.38763185882853    0.18879444937635   -3.35220044010203
N          -0.04537583217567   -1.04931695606358   -3.23428795459151
C           0.15117804583763   -1.78676748592741   -2.16282465921848
C           0.87908621287676   -1.23002829676041   -1.06392261371489
C           1.35505630853486    0.12167232341868   -1.20781442621507
N           1.99713740789223    0.42957037918573   -0.09696301885359
O           1.92624827865077   -0.64709399531387    0.67748426823502
N           1.26166015630556   -1.65837001121757    0.12094193085138
C          -0.36842081331825   -3.11708984896062   -2.14518494915377
C          -0.29826873423662   -4.02836409109574   -1.12609135306171
C          -0.92174005087289   -5.25530395089562   -1.44476798513796
C          -1.47093608371703   -5.24549661490117   -2.75840056792710
S          -1.20565907944124   -3.71947146919163   -3.55476810582001
C          -2.12208739288276   -6.33900893109916   -3.28827564631327
C          -2.23833362463305   -7.48048894707149   -2.49722198308739
C          -1.69372748610850   -7.48480424797734   -1.18267944786255
C          -1.04216627453310   -6.39858380978673   -0.64958638308446
S          -1.96587663818501   -9.01420013311654   -0.39094450491327
C          -2.79253941215121   -9.63397613808417   -1.80979168047914
C          -2.85173847346069   -8.71616397682275   -2.81788988140380
C          -3.30524776316062  -10.96472695472946   -1.81068902371435
C          -3.26994025348200  -11.87577403965775   -0.79594896149882
C          -3.86812356099360  -13.11662628594615   -1.12759301937058
C          -4.36926128054292  -13.12554308199753   -2.45678670131392
S          -4.08940307350266  -11.59868024892743   -3.24824033910218
C          -4.98767081707236  -14.22488627606411   -3.00823193138602
C          -5.12055905773282  -15.36408624666552   -2.21469217130046
C          -4.62602773864551  -15.35282920759837   -0.88305043806042
C          -4.00509152555964  -14.25435280352691   -0.33256670642759
S          -4.91284034717367  -16.87732336848751   -0.08935582184241
C          -5.67993650488270  -17.51743870184914   -1.53336230653362
C          -5.70888513446033  -16.60854082811028   -2.55024389423714
C          -6.18445014657213  -18.85131662472795   -1.53849604676093
C          -6.21089990760836  -19.73792512221231   -0.50171785838297
C          -6.78723315027217  -20.98730499288883   -0.83774304439783
C          -7.20454590092927  -21.02986460852470   -2.19738218854591
S          -6.87481233476518  -19.52123321384940   -3.00681735529310
C          -7.78971759252292  -22.14072620461645   -2.75606369020573
C          -7.97814227500652  -23.25932606275020   -1.93918185555461
C          -7.56746261762596  -23.21780004120733   -0.57654621665107
C          -6.97653059129448  -22.10201759452444   -0.02311111432941
S          -7.90966324165453  -24.71542902745989    0.24400328470296
C          -8.58802461625950  -25.37687939572658   -1.22316114726642
C          -8.55406395457273  -24.50420875155015   -2.27731850754634
C          -9.10327915181214  -26.70888365173614   -1.20846578451587
N          -9.05966128969423  -27.38651512244720   -0.08176884917953
N          -9.50901051157879  -28.61823851626315    0.04181458943567
C         -10.03586907805357  -29.28048292748619   -0.94365409662105
C         -10.14805067955422  -28.67957026260669   -2.22240853754126
C          -9.66315720322764  -27.33133055230858   -2.36885038962541
N          -9.86373618558788  -26.97422072625718   -3.62032926844532
O         -10.43287794360761  -28.02298377574790   -4.21206679670012
N         -10.61415367589262  -29.05652938547297   -3.39783299407005
H           1.37106196064952    1.80937172225122   -2.60660513035968
H           0.18315292442763   -3.81916998359460   -0.18733122906234
H          -2.53089982722228   -6.31840450683471   -4.28565839648630
H          -0.63305160915436   -6.41837676970215    0.34785790642007
H          -3.32150137995808   -8.91875656198641   -3.76423244702195
H          -2.82807719082357  -11.66540247022217    0.16220134197396
H          -5.35947623325690  -14.21326384904144   -4.02032071924950
H          -3.63367640254740  -14.26582289297184    0.67966713168538
H          -6.14107226352085  -16.82232145386067   -3.51203744525710
H          -5.83116857404067  -19.50236856091603    0.47682918692251
H          -8.09779802351230  -22.15797380369643   -3.78919371606164
H          -6.66895315647297  -22.08544463677445    1.00994009641584
H          -8.93063601974861  -24.75236184181117   -3.25370039671380
H         -10.37611704742910  -30.28430858906037   -0.74655321518863
