96
 SCF done       -217.775035101021          0.000480669236
C           4.54306078285291    1.26237834213237   -0.54590337068713
S           5.25429301129212   -0.35895001412208   -0.10917307464576
C           4.27862937470848   -0.73697604246693    1.32366103028325
C           4.41268280885260   -0.02481251451570    2.52467992618287
C           5.32218695861020    1.01567058296164    2.80511599643151
C           5.22561128201065    1.48822492120495    4.08459640054424
C           5.99850435510076    2.54256102069468    4.66487516319778
N           6.87124978195631    3.18240202219063    3.91387616587537
N           7.62223813655987    4.16541924908853    4.36701351748626
C           7.57004363180593    4.59728980494771    5.59174722892494
C           6.67017969260028    4.00773702010702    6.51364854034122
N           6.35863811567966    4.19361436925826    7.78290217003604
O           5.41487917570806    3.30196149365487    8.06307706837065
N           5.08776053703652    2.53110057416563    7.02849801332619
C           5.84624155715382    2.93200781248936    6.03025403531428
S           4.00633684663810    0.66331804904611    5.01438824378227
C           3.60180386484827   -0.35193280004971    3.65080124821814
C           2.66818953305177   -1.37786915142447    3.61058001863177
S           1.63130102346064   -1.90674257779105    4.93415535843882
C           1.28116947143918   -0.41499025451228    5.90905285011380
C           2.56873504459461   -2.11613596202493    2.41447004722858
C           1.70594785540797   -3.19703196815377    2.12935349556792
C           1.84794271954632   -3.67941553257484    0.85636649301465
C           1.14546155099137   -4.71720754217928    0.26640128916287
C           0.52805663460700   -5.61403010911853   -0.27207471939294
C          -0.18258578598541   -6.63023625442037   -0.88587129897726
C          -1.30509007801101   -7.28136605652625   -0.40390153128952
C          -1.79425476616488   -8.24402377333046   -1.27781359019032
C          -1.05115016381716   -8.35096074527941   -2.44195714184188
C          -1.27850996626680   -9.20446566683118   -3.49972252706679
C          -1.47009444467235   -9.95333513013070   -4.44152684993191
C          -1.72853425237729  -10.80883612130314   -5.49276283178479
C          -2.83957727951717  -11.59337176962249   -5.54317470035818
C          -3.14120341511725  -12.46744121768361   -6.60590832459361
S          -2.07811611199522  -12.65893261097549   -7.97519514671623
C          -3.14379190901423  -13.81200687944968   -8.72787500793845
C          -2.87912628786058  -14.35740652157993  -10.01132382538792
C          -1.67168718660208  -14.63297206236847  -10.56767574987926
C          -1.54450939262806  -14.78495667369380  -12.04522802394042
O          -2.43468359164426  -14.88259117709889  -12.85055492517264
C          -0.08580052146407  -14.71355802131669  -12.30743587663782
C           0.57282843584772  -14.68657321072434  -13.51564808073617
C           1.96976400703350  -14.58042295100450  -13.51206252657884
C           2.61103493596818  -14.56367907464687  -14.77375993260259
N           3.09132821189278  -14.57335285320602  -15.81562563670193
C           2.67631165770413  -14.47678947360667  -12.30082003462574
C           4.16628483016235  -14.26715828176981  -12.19709531772296
O           4.63414169310178  -13.71571326039748  -11.24116288747584
O           4.94395074770720  -14.72613339392367  -13.17724354568514
C           1.98956207649499  -14.50555558823102  -11.08712046974757
C           0.61281206335892  -14.64315746771872  -11.08666560194385
C          -0.34695988960616  -14.75077009558337   -9.98923512482422
C          -0.04988978314460  -15.16385546623019   -8.71969836002326
C          -1.02870143863573  -15.52084990681380   -7.76648910346943
N          -1.79036751083391  -15.85688579634393   -6.97699535776146
C           1.26341127968890  -15.38274111945413   -8.24860652071601
N           2.30682427157928  -15.57392654083488   -7.81351686768733
C          -4.27313023794760  -14.02199214883317   -7.94815668219400
C          -4.27417556087945  -13.27619644627143   -6.74384487862724
C          -5.35224623105431  -13.34295959767122   -5.76396271919022
O          -5.39543269172214  -12.70776985732356   -4.72914722998586
C          -6.44081936680605  -14.27034093001588   -6.15796454927816
C          -7.57666496163504  -14.50645431761149   -5.42053209098155
C          -7.96059356884346  -13.90897585461160   -4.10114121684390
F          -7.09267626172605  -14.19200682139103   -3.12809400378128
F          -8.09658361278025  -12.58095999657558   -4.15561605751014
F          -9.15089082512713  -14.39075250373147   -3.69633310005780
S          -8.64297111721408  -15.62780683845152   -6.16896030778603
C          -7.56351417537418  -15.79454181636692   -7.49300245206768
C          -7.92569213902618  -16.70597082647466   -8.62624109849272
F          -9.13926709281770  -17.25070884738141   -8.42330237574428
F          -7.99428896545632  -16.06388650683634   -9.79588199794039
F          -7.07544753714688  -17.72404638918984   -8.76636809007952
C          -6.43348447408150  -15.02201168558691   -7.36413759926328
C          -5.31661826950511  -14.97422674747693   -8.33194755068183
O          -5.27765739715192  -15.65804345745497   -9.33188714649898
S           0.28599627460905   -7.22729581350178   -2.45053427912295
S           3.06969907316519   -2.81420843791108   -0.06388382232145
C           3.37988553938735   -1.78305522516744    1.29842328532863
H           5.11284183749083    1.61906420379342   -1.39733615039704
H           4.63732777502859    1.95297915623900    0.28522396955320
H           3.50125955300277    1.12929344337523   -0.82223615866931
H           6.05121025006725    1.39447012321275    2.11238731900023
H           8.22779507911722    5.40722544772285    5.86311536410263
H           0.36834215215763   -0.64132706515124    6.45238725936028
H           1.11780696834203    0.42437364856223    5.24218143904463
H           2.08574414088654   -0.20997745978339    6.60793382325501
H           1.00885167743274   -3.60343398592968    2.83932272987164
H          -1.74096675340761   -7.04696992169338    0.55056563605118
H          -2.65827621725414   -8.85576227607294   -1.08987607398730
H          -1.00451872972304  -10.82802463003900   -6.30042500696118
H          -3.55895151790954  -11.56185502387825   -4.73671879774915
H          -3.74707226826042  -14.53272052999125  -10.64169709748637
H           0.02701341849348  -14.74507732772653  -14.44525029999712
H           4.48104941132023  -15.11384970440004  -13.93455927548812
H           2.56194263909229  -14.40173266198107  -10.17822313408765
