92
 SCF done       -177.793556408456          0.000797095048
C          -3.44678274253625    0.98267441184499   -3.33371697378312
N          -3.72490486289944    0.04496253000184   -4.18904741307462
N          -3.71251213668472   -1.23427804005794   -3.87752689876288
C          -3.41489381381985   -1.68382705221134   -2.67626461002670
C          -3.08737774041200   -0.74749711250587   -1.64660167281954
C          -3.10833009281413    0.64887332153638   -1.99859614103312
N          -2.78503990903634    1.32890583088703   -0.91506676397134
O          -2.57904127413605    0.42424747760427    0.03672875483590
N          -2.75417568418674   -0.82988936811881   -0.37570604359381
C          -3.43884001619133   -3.09302607936214   -2.45755450395327
C          -3.15643651275979   -3.77744542238623   -1.30797549692009
C          -3.29275468873137   -5.17426562660337   -1.44864711039454
C          -3.69202957361990   -5.54378879947110   -2.76336175155375
S          -3.88458497472262   -4.13696613335261   -3.77729639507096
C          -3.91172075562935   -6.86786906278919   -3.10918423893984
S          -4.44170706059381   -7.43980232727222   -4.69236208318444
C          -3.52429712279397   -6.40632112291297   -5.87355910526673
C          -3.74561352558978   -7.83443238700288   -2.10190173513871
C          -3.34092980072370   -7.46416271944179   -0.79192598710395
C          -3.11413717838046   -6.14470628148709   -0.44193070861684
S          -2.56568710231866   -5.57245702633183    1.13300506607888
C          -3.46528097999788   -6.61077588871991    2.32531199768827
S          -3.15819671506163   -8.87849978813666    0.21582571496936
C          -3.63192708897861   -9.93218231059591   -1.09895463930466
C          -3.90658319158445   -9.23302684252761   -2.23644840173134
C          -3.69364973773843  -11.34058799912981   -0.89858526687539
C          -3.35391555831427  -12.03430926647637    0.22737852968440
C          -3.52590092405162  -13.43279832417236    0.10350826118848
C          -4.00885998222404  -13.78428909325792   -1.18639892426525
S          -4.25566678581027  -12.38558674589380   -2.18790692833915
C          -4.20832853017378  -15.09072689673449   -1.58206430284687
S          -4.80954346636379  -15.45780484480580   -3.21497309612292
C          -3.23874171349039  -16.00299797552596   -3.96254510827964
C          -3.92634226136910  -16.10687701984922   -0.66220156082165
C          -3.44573229789694  -15.76012791259175    0.62668152813805
C          -3.26326349122221  -14.44887523213644    1.03255449895446
S          -2.66936246204975  -14.13341726377465    2.66877632449043
C          -3.90787238821109  -12.94172554769635    3.29246722593911
S          -3.16188045165274  -17.17079140451359    1.59899414446197
C          -3.69893581810438  -18.21068598560434    0.29571548432152
C          -4.06704979614650  -17.50488037025904   -0.81578727475910
C          -3.71237927421594  -19.62809606179002    0.46405054813821
C          -4.18172610826707  -20.56499555720904   -0.41525974725713
C          -4.04695303496334  -21.89190141711369    0.05019542966691
C          -3.43964338077217  -21.93720804846428    1.33195389203865
S          -3.06962928121871  -20.34836184185683    1.92458455990501
C          -3.20094965558417  -23.12270407048182    1.99318002095018
S          -2.41852732217205  -23.12669497482324    3.58803374889597
C          -3.85707524626502  -23.55751687100193    4.62171202442794
C          -3.58114971710339  -24.31131916612411    1.35468666505180
C          -4.21635903816445  -24.27551621117528    0.07877714624483
C          -4.43902477819902  -23.08119852254963   -0.59228561720598
S          -5.23551085477239  -22.90041652666111   -2.15583566173308
C          -4.72710543926055  -24.35532640229654   -3.11841795307662
S          -4.64317814168432  -25.88756699716218   -0.44315309296099
C          -3.95311285155609  -26.57034053161210    1.00096501830583
C          -3.43294013857636  -25.62710909053816    1.84232706072961
C          -3.98331860424964  -27.98604994440613    1.18064425173759
N          -4.48832855418273  -28.72986803176775    0.22006245534533
N          -4.56007518343398  -30.04356706585221    0.28397994496456
C          -4.13839589023959  -30.72505204652274    1.30632781907400
C          -3.57693616271753  -30.05658567426049    2.42304834548693
C          -3.49283262591485  -28.62040741790654    2.36453708414958
N          -2.95820397577555  -28.20933815327151    3.49557312675363
O          -2.72296177524504  -29.30983709703795    4.20763239422812
N          -3.08368040058728  -30.42833486415798    3.58922069724118
H          -3.48553653568316    2.00264213033536   -3.68075058910058
H          -2.86594170391526   -3.29376617017962   -0.39273132854453
H          -3.46076602876051   -6.99751049273762   -6.78218350595755
H          -2.53095485698186   -6.21245852994794   -5.48434820933074
H          -4.05433181388841   -5.47982529211913   -6.06913643043794
H          -3.52950100762912   -6.01758389477152    3.23235053698137
H          -2.92270647753596   -7.53013975318983    2.52078828287031
H          -4.45880238217018   -6.81786936219077    1.94364393784530
H          -4.21433860764923   -9.70119390101214   -3.15407907329311
H          -2.96204608419704  -11.55229160193597    1.10468463801856
H          -3.47650410710721  -16.32673228019027   -4.97013974424055
H          -2.82442310607087  -16.82554742958986   -3.38794166511072
H          -2.54745848251440  -15.16599303309357   -3.99034684400094
H          -4.22134393051677  -13.29826259389960    4.26879392786830
H          -4.75179547378992  -12.91867009989452    2.61300226242973
H          -3.46068468765646  -11.95687628753971    3.38732452024463
H          -4.44018752542726  -17.95982534426371   -1.71491961424577
H          -4.62230601578726  -20.32669478847311   -1.36543756827802
H          -3.48481818040711  -23.63276927831030    5.63779103969135
H          -4.27593083181426  -24.50635318711294    4.30294202915241
H          -4.59575719470431  -22.76487733759464    4.55025234092604
H          -4.83248920872986  -24.05904736243514   -4.15799899912610
H          -5.37176350756133  -25.20331807710221   -2.90764939103749
H          -3.69095379973136  -24.58764030007843   -2.90120003897509
H          -2.94569604070527  -25.87400363753236    2.76880651967739
H          -4.23704476494415  -31.79786180726264    1.26661641064973
