90
 SCF done       -192.636155675962          0.000690159449
C          -2.89847476688055   -3.45687891151814    5.70917450336107
N          -3.71867075201479   -3.94996014481650    4.83184913744533
N          -3.36433489875414   -4.21887792262833    3.59021680619532
C          -2.14282721272423   -4.06056536484395    3.14613720957623
C          -1.12410126893549   -3.62953445589181    4.04663638527817
C          -1.53247400010242   -3.27528203980743    5.37871327231848
N          -0.43960695543265   -2.93755364321497    6.03935943227143
O           0.56242355538240   -3.08733170463578    5.18790454458663
N           0.18720936474010   -3.50511278474560    3.98637181595614
C          -1.84869591262981   -4.33814888550757    1.76030846978263
C          -1.04109658459801   -3.59901424905677    0.92234219773768
C          -0.50669268834088   -2.28816576966777    1.29427852078812
O          -0.91472287440562   -1.62463366733129    2.22353731312412
C           0.56089170900724   -1.83592598808698    0.38135097024994
C           0.82980842118480   -2.49107772700179   -0.84953672078262
C           1.85780196236414   -1.88316009570835   -1.53142456697198
S           2.51637659100104   -0.53478243769258   -0.69087847357304
C           1.39608832187911   -0.76591857620089    0.59004788573491
C           1.42271994894115    0.14586655030799    1.77792998197193
F           0.34039640949269    0.92521474130951    1.85377137623679
F           1.52709291567324   -0.51657315709790    2.93262370777539
F           2.48075902955561    0.97408696556130    1.71801925839901
C           2.43548983211366   -2.26768322454863   -2.85842934618275
F           1.55456334378550   -2.17636797468945   -3.85887977455227
F           3.45678464273218   -1.45408187843843   -3.18339997088397
F           2.93079540456196   -3.50923160746586   -2.86972238227382
C           0.07235006087240   -3.66961079652453   -1.33691362446303
O           0.29839833109931   -4.14766589872259   -2.43300553024888
C          -0.88550728777768   -4.18588403804591   -0.36937938199890
C          -1.63398002652245   -5.35739159488933   -0.50005903200174
S          -2.47504022876889   -5.73801871624672    0.97768788774491
C          -1.78315409282656   -6.24480766218611   -1.59988525750503
C          -1.68238654556821   -6.00472301317462   -2.94274241418589
C          -1.89428646304697   -7.14414336572961   -3.74309139494754
C          -2.21138349978069   -8.30033373844052   -2.97472274662653
S          -2.20566136333307   -7.91793347622929   -1.27312255265584
C          -2.50637727609346   -9.51875163378830   -3.56099046347300
S          -2.92922113442433  -10.99558550775468   -2.68826066528829
C          -1.77646410207428  -11.01285927689961   -1.28040356796631
C          -2.52104281274315   -9.57389085283024   -4.96776664573677
C          -2.18976143974338   -8.42160289012646   -5.72853833764985
C          -1.85103065949119   -7.21734796881476   -5.14449085002439
S          -1.43003738470241   -5.82576294746432   -6.15638537283824
C           0.28398047629702   -5.50107277598578   -5.62487829744512
S          -2.22855964557353   -8.74127406157023   -7.43598462825653
C          -2.68247124637956  -10.41017666154491   -7.12725126469649
C          -2.79664569621829  -10.68567335121220   -5.79030405416468
C          -2.86413476976667  -11.29469528401159   -8.17640131470208
C          -2.98726157733539  -12.04531030344548   -9.12391581440641
C          -3.11989560156963  -12.95620495212234  -10.15568235926975
S          -3.57955042161548  -14.60904055965317   -9.83220139000094
C          -3.46073549834072  -14.99653182057860  -11.52824126079295
C          -3.09260015120713  -13.89389040952854  -12.27242721967922
C          -2.90319142960857  -12.74783365694181  -11.50254993522009
C          -3.70613573981354  -16.28340365011240  -11.97970684450188
C          -3.91258515583738  -17.42292934103909  -12.34449152005515
C          -4.13740519485199  -18.73191734911491  -12.76468993764298
C          -3.79880951659947  -19.17230430952214  -13.99169816352149
C          -3.99597533473132  -20.51727318435326  -14.48762489491399
C          -3.26225522258851  -20.93124436139781  -15.62113460670309
O          -2.40249723591154  -19.99474076661363  -16.10872775534166
C          -1.75672947756773  -20.14122163521613  -17.35286268830056
C          -3.43673422267115  -22.23819649868520  -16.11446269706488
O          -2.68195143546510  -22.62581734801412  -17.19590166100908
C          -2.83791115638231  -23.92825606754903  -17.69952713245443
C          -4.34684020828252  -23.08355132452943  -15.49430609728046
C          -5.07565993650377  -22.66636846216555  -14.39166889815166
C          -4.89810222654065  -21.39975787802581  -13.88877899237843
H          -3.29155686936775   -3.23170380656662    6.68778801876921
H          -1.50945972476957   -5.02899412020014   -3.35336764584336
H          -1.66266948082389  -12.05891724929468   -1.01250693856124
H          -2.18455299866011  -10.45760785818844   -0.44155103929813
H          -0.82245948519602  -10.60236909425702   -1.59285850891807
H           0.63765343520631   -4.70489684695117   -6.27197893018567
H           0.87318624592994   -6.39936098554843   -5.78229322277863
H           0.32801734544043   -5.18185439888281   -4.58995158592960
H          -3.06629638359723  -11.65389549718151   -5.40968155166782
H          -2.96848052901299  -13.93513731628499  -13.33982356517959
H          -2.61289690416352  -11.79067982123348  -11.89785142667081
H          -4.58052483261109  -19.38730969475744  -12.02589959112063
H          -3.31016286367863  -18.48861870801196  -14.67116319661900
H          -1.26419380416859  -19.18385568827283  -17.52706093592118
H          -2.46767206722748  -20.33503790297292  -18.15861133864475
H          -1.00801481186220  -20.93510453037215  -17.33170940906195
H          -2.14627870511359  -23.99721765458274  -18.53837071926509
H          -3.85714453970994  -24.10566077208039  -18.05809452241344
H          -2.57521596116098  -24.68491473695839  -16.95298153101067
H          -4.49396666533144  -24.08425238624343  -15.86583984819306
H          -5.77973579030506  -23.34439021453780  -13.93445252115893
H          -5.47655459720944  -21.07346737336176  -13.03956216634431
