76
 SCF done       -162.592016095378          0.000732738078
C          -8.88518059242111   -5.45205699961538    4.07990959037987
N          -9.06928091860081   -5.71342265578735    2.81992080318357
N          -8.07927742669627   -5.93552987556477    1.98307079330375
C          -6.80957893603173   -5.91211155395773    2.34061247217579
C          -6.47845573010603   -5.63424158613382    3.70284992075874
C          -7.57173968987368   -5.39535677103344    4.60902332001065
N          -7.04699874543580   -5.16473998534388    5.79761209788047
O          -5.73075949773696   -5.25362360006155    5.64059642706609
N          -5.36227860705995   -5.53439322922026    4.39306468741263
C          -5.82827320249773   -6.16669502298311    1.34372729455803
C          -4.45178329160964   -6.18265457430543    1.47411740108880
C          -3.83117917495086   -6.47114428120046    0.26114644073987
C          -4.75707531048996   -6.67391841021213   -0.78795746504209
S          -6.37741018956674   -6.50911804979973   -0.28523163571566
C          -4.03347796314737   -6.95811690778877   -1.96935869032766
C          -2.65880101367003   -6.93672734363532   -1.67827485690468
C          -2.48795593309443   -6.62899155687703   -0.26349347154419
C          -1.30808493248644   -6.51207288780268    0.41103310074302
C          -0.06347047464291   -6.69285725401437   -0.22824927261921
N           0.94664777798677   -6.84248618226603   -0.75030914340080
C          -1.24779219035258   -6.20075485060282    1.78629931125998
N          -1.18166063530852   -5.94567791448270    2.90184423782620
C          -1.86142632679989   -7.20105125973911   -2.78815595010211
C          -2.61364577931225   -7.42291694093177   -3.93091441277087
S          -4.34222832416549   -7.30559397290838   -3.61403069631960
C          -2.14041570910018   -7.71705387099567   -5.24048315536417
C          -2.99093698627590   -7.87936562496067   -6.31019850133986
C          -2.59502238652270   -8.16006862971138   -7.61388293615278
C          -1.16921308880083   -8.19582036468984   -7.96919350898786
C          -0.16234565750728   -8.08162466525012   -7.07562619626587
S          -0.39358615543738   -7.86056657744575   -5.39127301232966
C          -1.13304527420045   -8.35334319752748   -9.38167255288533
C          -2.43591837214631   -8.41534055356541   -9.87921467489378
C          -2.46323613623268   -8.57458233547229  -11.28219252108300
C          -1.20860651760617   -8.62466141058748  -11.80090734853506
S           0.05007824672326   -8.48687301054901  -10.61904402738385
C          -3.36583392977802   -8.32826672543782   -8.78459928360375
C          -4.76755198101639   -8.41407196846678   -8.95216783897692
C          -5.67993307989936   -8.72482035075650   -7.99096945729235
C          -7.07933008844026   -8.76243131312273   -8.19108799123543
C          -7.82293316375616   -8.42548985800305   -9.31624963270596
C          -9.18762806978120   -8.58334401207013   -9.10852863091131
C          -9.50338371300031   -9.04594035012352   -7.81667591753636
S          -8.10698344977273   -9.28081312688067   -6.86043752718036
C         -10.90682024236543   -9.17145326010047   -7.70785144370995
C         -11.48629087736122   -8.78167524361292   -8.93870353658708
C         -10.42808462875047   -8.39998766840309   -9.85304523848959
C         -10.55151986120346   -7.95796872009240  -11.13805573308372
C         -11.80243219443652   -7.80649364478572  -11.77323881656499
N         -12.80954935690908   -7.67712438342708  -12.30513173873511
C          -9.42687347154756   -7.62280737538125  -11.92032304689579
N          -8.51037381336546   -7.35097221251886  -12.55435119634784
C         -12.87544763426284   -8.87207318888162   -8.92933592586182
C         -13.34278849041170   -9.32520102740265   -7.70907704405891
S         -12.06499279392380   -9.64651310338509   -6.55119593607229
C         -14.68612314930213   -9.55036257078769   -7.30484037595545
N         -14.90238638865482  -10.00108449621381   -6.08322825221326
N         -16.10331516406915  -10.24280983265654   -5.60539445936242
C         -17.18997663413392  -10.05666613307153   -6.29441606243537
C         -17.11378978181894   -9.57477296402088   -7.62485043855406
C         -15.80439090063950   -9.30873177458822   -8.16192449197954
N         -15.96175594534093   -8.87666330490011   -9.39490312572070
O         -17.27476323020774   -8.87241588026767   -9.61390505948923
N         -17.98742689235446   -9.28584722815397   -8.57045680042416
H          -9.75953802587910   -5.28457207960782    4.68762883373556
H          -3.95749871019699   -5.99196730760083    2.41008949777806
H          -0.78684923084226   -7.23161904295793   -2.78245908784241
H          -4.04305610678725   -7.73802051790055   -6.10716829927629
H           0.87602999569160   -8.12772931605656   -7.36370913853820
H          -3.35404001930569   -8.64579766867048  -11.87909943094253
H          -0.92799245923285   -8.73762826166163  -12.82979352819609
H          -5.11852772782456   -8.25681089616336   -9.96339640621026
H          -5.34696811940282   -9.00643588896917   -7.00306141000620
H          -7.38041183902902   -8.07791049329558  -10.23094269912430
H         -13.53238580697460   -8.62941872426592   -9.74562047930799
H         -18.12895787857625  -10.28228417824133   -5.81569671839667
