90
 SCF done       -177.253516740685          0.000894016920
C         -12.28652312588975  -13.90716437273832   -6.61263817262335
N         -11.18288165602373  -13.56245950913775   -7.21222699324388
N         -10.00622162092256  -13.57418115084000   -6.63089085115369
C          -9.83425524641351  -13.94116085978734   -5.36690749104647
C         -10.97705538448626  -14.33905989899522   -4.60542832387295
C         -12.25870897570751  -14.32154272122970   -5.25893294903427
N         -13.15115457010640  -14.72147907554475   -4.37366564345204
O         -12.47287135465058  -14.96907829876323   -3.25257067834704
N         -11.16071673561069  -14.74507130558824   -3.36962304635621
C          -8.53470142708504  -13.92884002896272   -4.81077778535514
S          -8.24569736061979  -14.39286154603142   -3.15962609337714
C          -6.52531556495701  -14.11081334712290   -3.28458470438266
C          -6.21919879393923  -13.67724822476976   -4.56663848116830
C          -7.33720181740425  -13.57116151885704   -5.43227571018637
C          -6.98160833519850  -13.12907814392548   -6.72623014228397
C          -5.63971686261036  -12.90978278851058   -6.82932989057118
C          -4.86572135903864  -12.45305602889824   -7.98742265253862
O          -3.67096600363865  -12.28180040232738   -7.97396124274681
O          -5.64268935007228  -12.25149975480993   -9.05819391653277
C          -4.97286591104606  -11.81130163975302  -10.23071906588638
S          -4.74612947284836  -13.22929031643525   -5.35990101817729
C          -5.65697966394066  -14.32115674158133   -2.19123826424889
N          -6.11142938816148  -14.75908561430064   -0.96627407716019
C          -5.04771181876703  -14.87224969050429   -0.13171277224535
C          -4.65682518139779  -15.23634712001869    1.14960234893051
C          -3.26409332170869  -15.06707993542528    1.19336468031428
N          -2.81799032288272  -14.60715466512607   -0.02883632221309
C          -3.88591656295807  -14.48076299498119   -0.85520216811300
C          -4.26751871632361  -14.13445448123092   -2.14492173672419
C          -2.40653740849614  -15.37106772758176    2.27424091994427
C          -1.05423706601203  -15.24848708088013    2.25615162143782
C          -0.20441136707555  -15.69427421702728    3.29172854762233
S          -0.84956866287723  -16.39165414502171    4.75895890293419
C           1.18305084849882  -15.77023869235400    3.27103833629790
C           2.01543061537924  -15.33267300021858    2.13912875100461
O           1.56833139116697  -14.82449566060159    1.11970918334931
C           3.42560380973384  -15.60018284987759    2.35194287439076
C           4.48922960021337  -15.38277825754772    1.50379555815145
N           5.61877560290546  -15.82680276368966    2.10221756400244
C           6.94433608935168  -15.72483847122545    1.54664317905514
C           7.57738627209813  -14.37606747593473    1.88298560075550
C           5.32018080214121  -16.31896613151172    3.32587003621019
C           3.96138226195051  -16.20455470562050    3.52716151813240
C           3.15713062746217  -16.64707975445653    4.64907196889827
O           3.60141158626812  -17.16023197762637    5.66133365022811
C           1.71421765306333  -16.41257227747008    4.42670620242138
C           0.73764399722888  -16.85795803558995    5.29780731034646
C           0.91969232770900  -17.69192822977189    6.45224695925708
C           0.17675871164972  -18.78006751687709    6.75053314314761
C          -0.87447641607900  -19.36513884798702    5.97120101546495
C          -1.01802856816425  -19.44929710170406    4.62283321707206
C          -2.36731025489640  -19.68693766749642    4.03803571402289
O          -3.33850597037684  -20.14012837419767    4.59286850516731
C          -2.27371025902258  -19.16633443319460    2.65192249754780
C          -0.94211033030538  -18.80907178176599    2.37120907574512
C          -0.11773171684680  -19.11838526562703    3.53379149067688
C           1.24563387002237  -19.23160174936876    3.55170186750796
C           1.94683826540058  -19.80126502062316    4.63765061297140
N           2.53368521571976  -20.33165536786752    5.46697902653955
C           2.08483201557178  -18.89837830029442    2.47055999714281
N           2.81656137946738  -18.60690046678435    1.63509109630493
C          -0.61956838493925  -18.25354852672366    1.14148741107782
C          -1.62849074508924  -18.07269829622628    0.20859513482641
C          -2.93401833439960  -18.44491700160740    0.49935473039098
C          -3.28190779587930  -18.99509198292839    1.72558465571682
Br         -4.27554334859204  -18.20006674791279   -0.82203851107946
H         -13.19863505530868  -13.86119747619077   -7.18503562038397
H          -7.68977880911722  -12.98737520760591   -7.52079848051692
H          -5.74322842743874  -11.67496018528760  -10.98480769172781
H          -4.24500566231466  -12.55823198128949  -10.55462511835379
H          -4.44964195612436  -10.87212641056128  -10.03920786542072
H          -7.06827089740647  -14.99688727311913   -0.76730323271252
H          -5.26400494171493  -15.58765364357524    1.95928551336310
H          -1.85962213049654  -14.39403669291420   -0.24577191049037
H          -3.65702027279723  -13.79615679020684   -2.95648103826456
H          -2.88901531443045  -15.76759050887763    3.15883392657124
H          -0.53475596580520  -14.84597594117997    1.39837318690208
H           4.49384828147698  -14.95654482424299    0.52037599491618
H           6.87701007437014  -15.84671972951402    0.46261147696518
H           7.55337288432480  -16.53623524062250    1.95238495140069
H           6.97710814729245  -13.56426218483206    1.47924339165326
H           8.57493327494765  -14.31747351864855    1.45726621506641
H           7.64955023066481  -14.24968185153475    2.96056592632125
H           6.06652568794252  -16.73231569637433    3.97479921329044
H           1.74882076776998  -17.42588070232921    7.09457931612611
H           0.35488782966523  -19.26152773363295    7.70330955238560
H          -1.70233558819719  -19.77805106561918    6.54104946285886
H           0.38812626924806  -17.95162945780719    0.90494931156497
H          -1.39835812713411  -17.64052431114493   -0.75306183668598
H          -4.29669070932707  -19.28231349409958    1.95309915393901
