74
 SCF done       -158.306052694820          0.000456711899
C          -9.14316992664679   -0.19283255475966    2.78950777333618
N          -9.15750616590208   -1.36930638504412    2.23548064571933
N          -8.27968806816255   -1.74568934008307    1.33231443860253
C          -7.30207202903277   -0.96816911760575    0.90425202483208
C          -7.18039328101160    0.35091778541185    1.44105924689144
C          -8.14970385523042    0.75071620397022    2.42822752226786
N          -7.85597314735714    1.98725042102719    2.78267631777149
O          -6.78627804721348    2.32851026023417    2.06996921017467
N          -6.36084551520857    1.36390381321671    1.25680521696054
C          -6.41549696945463   -1.48564411187331   -0.07784223689675
C          -5.33071809692131   -0.86437513345329   -0.66972937121509
C          -4.70980075363944   -1.69871369485497   -1.59450348089857
C          -5.34056642365825   -2.96549392350293   -1.69665283705417
S          -6.68525478421483   -3.11973040317327   -0.65737500843425
C          -4.64997735296714   -3.73268999379031   -2.65439941693742
C          -3.58059912805584   -2.96239414965921   -3.16533558623523
C          -3.58823804969068   -1.66003140557477   -2.50693954106979
C          -2.70837242950702   -0.63710762898501   -2.71846689288020
C          -1.64744830793174   -0.75415145186593   -3.63919443774596
N          -0.78529608491496   -0.86175059455801   -4.38862062343085
C          -2.79391592974479    0.59420976600301   -2.03545212108689
N          -2.84875618745358    1.60073366409885   -1.48947644720494
C          -2.83949414266228   -3.61886089717432   -4.13000700785681
C          -3.31690200301535   -4.90834515086521   -4.38310696525033
S          -4.72776020685201   -5.27681296436821   -3.38159460292053
C          -2.89456795234839   -5.89381388418861   -5.28113806351692
C          -1.79933230237588   -5.90603686848534   -6.12053986129565
C          -0.71581043048566   -5.01485256806278   -6.29120288247473
C           0.17872934363812   -5.40105465366088   -7.24753457188082
C          -0.15062915376552   -6.61352194026262   -7.88652081888833
S          -1.62344150344751   -7.26463478498592   -7.22213980487494
C           0.53630071186123   -7.25584507994768   -8.90748443236465
C           1.72686387307760   -6.86035106591908   -9.54786013817404
C           2.13042221087194   -7.71673756193301  -10.53120763355133
C           1.27990641682664   -8.83156406565349  -10.72121010174847
S          -0.05292670229882   -8.75079042063107   -9.58832559276873
C           1.47008453209648   -9.81964131154137  -11.66441991358373
C           0.66941783345919  -10.93833607075928  -11.91304498941252
C          -0.50064835544161  -11.36908200330906  -11.27927935046212
C          -0.99696592691359  -12.53455807453283  -11.83171920738405
C          -0.21982512118504  -13.02719131014164  -12.90464546441479
S           1.13492458310037  -12.03257441307596  -13.22035991885660
C          -0.81463693982061  -14.20890078618889  -13.38689716753679
C          -1.97668776712479  -14.47367332437791  -12.61714823541662
C          -2.12614068177455  -13.43418197331583  -11.62182399282940
C          -3.10643825929218  -13.30657785074719  -10.68041224845920
C          -3.13145367571192  -12.23537499735941   -9.76306573901573
N          -3.15757670970690  -11.36673406668310   -9.01452419260194
C          -4.16271715401130  -14.23399864704793  -10.55587108552761
N          -5.02803416719726  -14.97726430780805  -10.44141209373289
C          -2.63382849020462  -15.63193389739391  -13.02011081927212
C          -1.98457036382299  -16.23886874390588  -14.08008387493976
S          -0.54392858847880  -15.38133369399418  -14.59766154698117
C          -2.34106380040068  -17.43161374115144  -14.76423614588888
N          -1.57752268649180  -17.83031147763120  -15.76505549304053
N          -1.81481221948681  -18.91837211024948  -16.46369484896383
C          -2.82403338331786  -19.70440905168327  -16.22925444256601
C          -3.73014957369003  -19.40454287182467  -15.18203118542262
C          -3.48456416436788  -18.21345847435729  -14.41089158888325
N          -4.43304655684386  -18.12610542486356  -13.50293202351420
O          -5.21629133961579  -19.18633345630582  -13.69194417588951
N          -4.81760679471866  -19.96798143947290  -14.69112643214295
H          -9.90596337756782    0.02383695039661    3.51964620182928
H          -5.03423819469245    0.13960693062865   -0.42262627908364
H          -2.00979804748929   -3.18283389091221   -4.65049978946923
H          -3.52734898080085   -6.77148828700186   -5.32776117135488
H          -0.59282486627144   -4.12390859922073   -5.70549179758554
H           1.06040892961593   -4.84165490439490   -7.50328812441681
H           2.25307467210097   -5.96403174266479   -9.27403786304651
H           3.01411562763705   -7.57970344855718  -11.12884706122682
H           2.34416552179972   -9.70993281721462  -12.29362614297995
H          -0.95225329244507  -10.84888346858334  -10.45642873339104
H          -3.53236703897800  -16.03404309489295  -12.58672895728938
H          -2.93456280802142  -20.57452022709518  -16.85583602337868
