170
 SCF done       -273.431344504674          0.000596631610
C           0.48433006625072   -0.26820507818354   -3.93894470018911
C          -0.55489723061986    0.11282828426041   -4.77143487261879
C          -1.83750354288773    0.23387412320487   -4.27095667838970
C          -2.10310624205533   -0.03935756503399   -2.93035238193045
C          -1.04774355116894   -0.40830362844951   -2.09787683376570
C           0.23416939451728   -0.52216488870922   -2.60019511504537
C          -3.46925427845932    0.10529735906806   -2.40231053731166
C          -4.18432502937613    1.31780257158946   -2.83113977265782
C          -3.52874083838219    2.54760124319868   -2.84761027081701
C          -4.18724070642752    3.68898911178846   -3.26423700467333
C          -5.50481952067734    3.61809728305418   -3.68505061685774
C          -6.15913959906653    2.39698902482157   -3.69087881575972
C          -5.50636888717125    1.25521652459156   -3.26810772002492
C          -4.02490134873609   -0.80955692370847   -1.57455516469419
C          -5.29895006446221   -0.56938907175571   -0.87508197360727
C          -6.26836323222615   -1.56925629088023   -0.82477759912969
C          -7.46103943347465   -1.35831092921107   -0.15895876573819
C          -7.69823843469208   -0.15196421348089    0.47847369967330
C          -6.73290927199706    0.84126840497566    0.45009621817500
C          -5.54221211909519    0.63614179430428   -0.21999753374194
C          -3.40278317049090   -2.11249219198105   -1.30778509228440
C          -3.37791199708587   -2.62877495819839   -0.01128433504187
C          -2.82512095085265   -3.86161668767561    0.25344072558949
C          -2.28858091809682   -4.64046272469275   -0.77850799693319
C          -2.32742896033598   -4.12555847496925   -2.07863341746068
C          -2.87159292114121   -2.88897043563100   -2.33889176146816
C          -1.73543783616938   -5.94679934686581   -0.51716144092003
C          -1.62738800198869   -6.60570093042648    0.68746889277668
C          -1.06790491302374   -7.88128974737856    0.55125404096607
C          -0.74284971476999   -8.19421745100142   -0.77342280005894
S          -1.12034152832983   -6.92328996122566   -1.84602366458114
C          -0.20985025606827   -9.51415088913307   -0.80888540634175
C          -0.20472058720771  -10.02768227383263    0.49324682477909
C          -0.73486967669949   -9.01798924247329    1.39541334502588
C          -0.89017277495131   -9.11646194906842    2.74771781320799
C          -0.53311837225669  -10.27881211194724    3.46142266545782
N          -0.24274864826703  -11.22314740705975    4.04391108068294
C          -1.41799455505159   -8.06276614074120    3.52167712998329
N          -1.84750408482100   -7.20942430961253    4.15653778862605
C           0.28300898593254  -11.33847936470994    0.55900640935541
C           0.65177000083085  -11.82328464140060   -0.67517793417692
S           0.39604044327791  -10.63231835060538   -1.94478366558002
C           1.17750254197396  -13.12648893887565   -1.00410220407391
C           1.09788821006978  -14.18488873391992   -0.09170528071384
C           1.58677871393740  -15.43013474877001   -0.41529381064737
C           2.17886286247642  -15.66936607219931   -1.65650277391060
C           2.28005239173440  -14.60941495404342   -2.55844737271965
C           1.77790195560559  -13.36661222243240   -2.24343444429866
C           2.72632561900814  -16.98941859326751   -1.99303731061502
C           4.05488188290953  -16.97927245914960   -2.62668013396438
C           4.32387608636348  -17.77099286943459   -3.74171362076936
C           5.56951922447598  -17.74039064706579   -4.33817098456296
C           6.56526093172175  -16.91993271235366   -3.83350908708716
C           6.30371714622243  -16.11896836660132   -2.73441404416663
C           5.05654683883862  -16.14183180091030   -2.13923697761146
C           2.05748880439838  -18.13736360219426   -1.73006451959266
C           2.68930450262225  -19.46097729037798   -1.85835812861133
C           3.95765620494100  -19.70325517627902   -1.33422370671891
C           4.53448505649146  -20.95345792107456   -1.44675026389029
C           3.85617262526844  -21.98060162912532   -2.08248508782088
C           2.58973295362764  -21.75359583371037   -2.59485746786024
C           2.00656764361771  -20.50607141361871   -2.47782918862360
C           0.64978938603080  -18.15087310553343   -1.31365250098445
C          -0.29991017963546  -17.35132250467474   -1.95177154935867
C          -1.62520432942914  -17.40608195647636   -1.58594694726993
C          -2.05903288127553  -18.25750503764617   -0.56457086111195
C          -1.10615143899097  -19.06156495227594    0.07130578312693
C           0.21772766317238  -19.01346689554046   -0.30492938214470
C          -3.45305707291871  -18.31849905038176   -0.19689827169200
C          -4.03160880978101  -18.96672893599190    0.87108309324603
C          -5.42399236835922  -18.82079341993171    0.89461513032886
C          -5.90800291157936  -18.05373754384961   -0.17138743226185
S          -4.65698363841922  -17.50655040666370   -1.19198474002701
C          -7.32552205297481  -17.97327569394950   -0.06577322300043
C          -7.72872520886518  -18.68762182372653    1.06798426592906
C          -6.54946647439125  -19.24465152396317    1.71259229749014
C          -6.50910385273369  -20.00840386566184    2.84282712564654
C          -7.67480458375873  -20.35543465921753    3.55611506961464
N          -8.62063323108840  -20.63987327983973    4.13943135909228
C          -5.29942581772488  -20.50439889817379    3.37081410432245
N          -4.31753154142407  -20.91334673550125    3.80017066909377
C          -9.11655044596809  -18.67751866302177    1.25159489434459
C          -9.77190413054604  -17.96886224047971    0.26933943106440
S          -8.64700245941740  -17.29702205838899   -0.90512720341108
C         -11.19007490102132  -17.75315449145198    0.11373838077137
C         -11.70160474211104  -17.16419878132930   -1.04731427562417
C         -13.05519067011839  -16.98390920292150   -1.21640346102744
C         -13.95599645219068  -17.38180297302310   -0.22751294453104
C         -13.44648077380727  -17.93377773237270    0.94862179222021
C         -12.09314851565648  -18.12596347430534    1.11580511903477
C         -15.40373964952987  -17.19566443177125   -0.39187965563165
C         -16.10533151345473  -16.65226430009770    0.78367267559875
C         -17.29443005047906  -17.21916093378088    1.23772922429704
C         -17.93193945785695  -16.70970256548071    2.35260003407746
C         -17.39372865998890  -15.62885319288180    3.03180696119025
C         -16.20541661580070  -15.06668095358898    2.59619490919524
C         -15.56137528721260  -15.57823483693561    1.48542238736165
C         -16.04643657030581  -17.51047015312689   -1.53981726844552
C         -17.45529943454394  -17.15858890259899   -1.77928822757690
C         -17.93761276667776  -15.88266045773102   -1.49359160411634
C         -19.25727683879305  -15.56032648349977   -1.74531302045997
C         -20.11600294443089  -16.50394997667425   -2.28516759819547
C         -19.64348956541733  -17.77112697640237   -2.58374378602249
C         -18.32210735031981  -18.09468412542538   -2.34050913813112
C         -15.38709889721511  -18.23807831099811   -2.63677362215907
C         -14.61115176995554  -19.36841219294921   -2.38600608193763
C         -14.01087327553461  -20.05113479574223   -3.42633044071368
C         -14.17682122197538  -19.61963835726070   -4.73230909074056
C         -14.95885378003534  -18.50685782484797   -4.99356948021379
C         -15.56567997161780  -17.82496332309140   -3.95577236844794
H           1.48667652602815   -0.36053231229900   -4.33024563180640
H          -0.36443975012837    0.31858695683666   -5.81477487115670
H          -2.64839426894103    0.52939119711459   -4.92185395658432
H          -1.23658038909714   -0.59267204443641   -1.05035560461224
H           1.04334236992978   -0.80655813919319   -1.94339197549915
H          -2.50096029748871    2.60433632580038   -2.51739122334104
H          -3.67018712820631    4.63757466667888   -3.26266588011483
H          -6.01823030569856    4.50999533037083   -4.01256949096643
H          -7.18297933419827    2.33406384509898   -4.02967419750826
H          -6.01584072949204    0.30299526064899   -3.28614503383551
H          -6.08556798932141   -2.51065072633844   -1.32403839399702
H          -8.20780302635711   -2.13869565722883   -0.13550187221017
H          -8.62950843099274    0.01160228874276    1.00026364801594
H          -6.90784237286176    1.77954264473530    0.95594355690010
H          -4.78683102851697    1.40809942655761   -0.22949280643671
H          -3.79011551510816   -2.04330735055642    0.79804946073279
H          -2.81428510986476   -4.22700807197818    1.26809874063263
H          -1.92899147725190   -4.71405960033469   -2.89326184859623
H          -2.90433940290647   -2.52097717240947   -3.35338934390667
H          -1.94232148465945   -6.18759469067325    1.62525907190090
H           0.37465147134083  -11.90148587786269    1.46923663199662
H           0.64040747978108  -14.03050811951160    0.87286064388029
H           1.52316378546500  -16.23214781060668    0.30496173025267
H           2.74493536521171  -14.77432978984856   -3.51990520669404
H           1.85576059941693  -12.56015546127859   -2.95916268072100
H           3.54644088787640  -18.40279671935270   -4.14530829633988
H           5.76442730848819  -18.35790610212344   -5.20274089438279
H           7.53971562698257  -16.90103481437973   -4.29857590258385
H           7.07458639135875  -15.47280036414913   -2.34016098445499
H           4.85491724310347  -15.51904847222583   -1.27888449957350
H           4.48417254056356  -18.90803782928873   -0.82736552617063
H           5.51723307317144  -21.12873618567980   -1.03425962856267
H           4.31082144702722  -22.95586152625600   -2.17334095806138
H           2.05382902454901  -22.55234843367553   -3.08661987879411
H           1.01934721312759  -20.32905754857649   -2.88134296207400
H           0.00762487982555  -16.69710514860049   -2.75394787850627
H          -2.34554488160107  -16.78341191980302   -2.09780988838761
H          -1.40831222721620  -19.73828012539711    0.85497591071185
H           0.93835177305550  -19.64586460661039    0.19346234008332
H          -3.47331349439853  -19.51408755872556    1.60761917050203
H          -9.61846444517937  -19.17750501815375    2.05889531066584
H         -11.02069226460296  -16.85082239505278   -1.82630960170245
H         -13.42587405689160  -16.52232644967432   -2.11937450275024
H         -14.12948532524648  -18.23011426210669    1.73184889155548
H         -11.73115845181179  -18.56296883151295    2.03312491648353
H         -17.71066141505821  -18.06946647259034    0.71778917241847
H         -18.85202956344473  -17.15982104789456    2.69567017364968
H         -17.89568506424104  -15.22991139534320    3.90080670030528
H         -15.77794226459148  -14.22731500872083    3.12526789164559
H         -14.63490236462964  -15.13723713500313    1.14474775291679
H         -17.26819358782615  -15.14059091662036   -1.08389235004025
H         -19.61776028053405  -14.56677559343130   -1.52189591208522
H         -21.14815631002127  -16.25087920966853   -2.47750247614924
H         -20.30715871408174  -18.50955215931339   -3.00978315774307
H         -17.95459437826615  -19.08458913218563   -2.57216808894867
H         -14.49155374232210  -19.71679812166862   -1.37050964008960
H         -13.41332704230398  -20.92666720030920   -3.21793226061358
H         -13.70386254479648  -20.15277882649519   -5.54376186631509
H         -15.09787667101771  -18.17018506251874   -6.01069859108846
H         -16.17424770918038  -16.95529208421143   -4.16041283805390
