78
 SCF done       -174.156667349635          0.000658803127
C           3.26142233757252   -1.85586073056142   -7.75871047024666
C           3.23000514448214   -2.50854370451877   -8.99251850370311
N           3.20855555079715   -3.04347767025655  -10.00679660032180
C           2.23048459961215   -1.72860185803144   -6.85022592458896
F           1.01647092452158   -2.23681400042245   -7.04380609046880
C           2.59322381509729   -1.00846242563722   -5.70073554519686
F           1.75773246662697   -0.76298614683299   -4.68956269194524
C           3.90664085820098   -0.57556273250012   -5.71584752836094
S           4.70080618842623   -1.07235779292418   -7.18099299525061
C           4.56038586865605    0.15071726095555   -4.73640235181145
C           5.10504648113655    0.78681325885484   -3.85619840822332
C           5.74665684908507    1.49986371127455   -2.86221689665903
C           5.21349245196678    1.92966383458486   -1.66231514281389
C           6.15692145210248    2.61145619219541   -0.89306937932123
C           7.41566939474915    2.69988083532023   -1.51979212166258
S           7.44280759822199    1.94869671315528   -3.05204941773988
C           8.30044572223273    3.39133771068537   -0.65803342322143
C           7.60809391639401    3.73708984027437    0.51383835394561
C           6.23348359289485    3.26683417995015    0.39943938646325
C           5.23408620983410    3.42317089213112    1.31470104160331
C           3.92844490772894    2.93535802407281    1.09530322954351
N           2.86534790127051    2.54319710480443    0.92127008258048
C           5.44091154593191    4.09113974208644    2.53995253989703
N           5.61171634605689    4.63486730008149    3.53506478094751
C           8.40154557914286    4.41056294606628    1.43860313395236
C           9.69713235532846    4.59214139360982    0.98362755483607
S           9.92980532243819    3.91048573683132   -0.62397389717174
C          10.77518022712577    5.22240755833127    1.66748800364200
C          12.00025974459118    5.43838255080318    1.07809332825663
C          13.09763290111457    6.03358693820432    1.69345472540221
C          12.99118406002528    6.51860969270257    3.07803282964342
C          11.88391501185626    6.41330233642849    3.84463437295147
S          10.42014785973275    5.69146018760475    3.32462292216689
C          14.25174162255124    7.10032931515189    3.38132721939005
C          15.08980873523333    6.99763241412431    2.27221729209493
C          16.36199946701442    7.56202193801408    2.51337930592868
C          16.45108185084173    8.06730893937551    3.77142480763187
S          15.00808013300727    7.88112574684341    4.71079494975362
C          14.39199850531630    6.32498522513439    1.20482484725952
C          15.01766962259489    6.09163656286989   -0.03995769279716
C          14.57401295339703    5.36672101887666   -1.10413566675961
C          15.28802206903905    5.23454358898161   -2.31783347322363
C          16.50986681410853    5.78236721853357   -2.69047417873215
C          16.87209366132474    5.42994925179557   -3.98469224599655
C          15.92705856278635    4.60555798738467   -4.62183075901342
S          14.59028494266241    4.26499853028922   -3.61085366212829
C          16.38876373466430    4.31736560164242   -5.92715711679639
C          17.62949010339550    4.95965010409637   -6.11945898535172
C          17.97449085475455    5.67592946801510   -4.90712690803102
C          19.09086120689977    6.42302457218953   -4.66728367574589
C          19.30468300095114    7.06766925951444   -3.43138277924329
N          19.47552901823313    7.58921599566797   -2.42416265588276
C          20.10362114943985    6.59915932005126   -5.63343488227804
N          20.92995454825785    6.74608732286644   -6.41444256498706
C          18.16665281589681    4.73690967071269   -7.38745749247314
C          17.34716416071275    3.93381096392488   -8.15682982728482
S          15.88279355773128    3.44045383479068   -7.30077951494648
C          17.56385335538336    3.51439274292326   -9.45426818101290
C          17.74333892938314    3.13936286449801  -10.59604774112164
C          17.98113479007386    2.73171508557518  -11.89616751111883
C          19.06999868294340    3.05174675298971  -12.68690451846387
C          19.01795710434725    2.47735101349763  -13.96668865116293
C          17.88919549965983    1.71049091757884  -14.17243625061665
S          16.87733448186306    1.70126834357677  -12.75910633272354
C          17.53884551584327    1.00885592087532  -15.32718491605088
N          17.24785488017457    0.43083947948520  -16.27441495730603
F          19.96129383466218    2.65419041477733  -14.88834865344564
F          20.06924930832810    3.83152868430205  -12.26800536568251
H           4.19259393683363    1.74324457310717   -1.38241136419003
H           8.06606388222343    4.76057389762557    2.39804814775729
H          12.08367879593363    5.12428481270910    0.04827169300722
H          11.84539613661719    6.78365801274337    4.85692689182827
H          17.17013411061211    7.59782760355072    1.80570836075860
H          17.29331379612509    8.55162907592390    4.22548281210336
H          15.99083897284148    6.55612536220582   -0.13038210565000
H          13.63659265634413    4.83473174452596   -1.06294952487760
H          17.09729599506911    6.40702252085895   -2.04422183745556
H          19.09959705932000    5.12840744597115   -7.75049323243853
