132
 SCF done       -255.995039524888          0.000351346265
C          -2.24927234024666    1.32451062797767    3.49670150076084
C          -1.87331450737297    2.31386302838431    2.56535517738357
C          -0.57362075632926    2.87503226366951    2.67639954472230
C           0.26088668062915    2.50293649497834    3.75135817116216
C          -0.16756268515864    1.57120684326249    4.67305206086897
C          -1.41702488609393    0.96698932318876    4.52696094563929
C           1.60265703689205    3.09542868800336    3.89952824981285
O           2.33982704906437    2.81923360489893    4.82414410641592
N           1.98753062400035    3.99619186365482    2.92159134991389
C           3.30452480236043    4.60138265727665    3.02610271054958
C           1.23291466816988    4.38060234903670    1.82532042687914
O           1.68252239541920    5.16943238729297    1.01945653767155
C          -0.10810323251154    3.78839258480416    1.70892566109156
C          -0.90889301158317    4.11889848104268    0.63433089994222
C          -2.19456770326143    3.60026508229717    0.53212246527658
C          -2.70730175433193    2.74204985263369    1.48976589544168
C          -4.09463074398531    2.33008710112213    1.38792606857275
C          -5.01918648346892    2.21176026348513    2.37960971823213
C          -6.31322422273049    1.85324916276398    1.91953645691792
C          -7.46506243586095    1.60129109169750    2.69004635762913
C          -7.46953042399133    1.80397967884704    4.12545593463929
C          -6.93725134446368    2.84730774573226    4.82641946540648
C          -7.13453001005735    2.72431821031984    6.21936832152737
C          -7.80656470257569    1.59869986443108    6.59687757796294
S          -8.22001783191431    0.65837736186173    5.20279592670618
C          -8.18505356451332    1.15286310938329    7.96125683385945
Cl         -6.56609863042392    3.90968380044089    7.33384446700995
C          -8.58838747890277    1.16590635273026    1.99873988207365
C          -8.63047296119683    1.01540351061331    0.58977295974135
C          -7.47995429938664    1.27332058227681   -0.18262052498268
C          -6.34788226241458    1.68992499611216    0.51457686060690
S          -4.79065422260946    2.02088249981410   -0.18969854370647
C          -7.44533686514417    1.09771314276589   -1.61956860148351
C          -6.78139184168773    1.85668030967635   -2.54122347548308
C          -6.91501784119780    1.36252881601497   -3.85642129807034
C          -7.66088408477907    0.22446405870526   -3.96064759393345
S          -8.22951202240699   -0.25245904112177   -2.39778824704392
C          -8.00895129611933   -0.55637733819787   -5.17368373061214
Cl         -6.18580467715950    2.14245684318825   -5.20713481515129
C          -9.92090833507680    0.64523871910301    0.13967933988689
C         -10.82862004822025    0.48710668160412    1.14816295955337
S         -10.12867607721050    0.79937893786332    2.72174825181032
C         -12.20081171321174    0.12286445876534    1.03091024482356
C         -12.95817914106909    0.06029103863825   -0.12222026221366
C         -14.27464681056948   -0.32571291491578    0.13961081841204
C         -14.51143126125244   -0.56976676376425    1.50085796823268
S         -13.12404996456607   -0.30870159450305    2.45879152975548
C         -15.87003370970675   -0.95315351679697    1.66069493742843
C         -16.49432335181560   -0.93019958154764    0.40471338560072
C         -15.51173439498784   -0.54296412196011   -0.59536545952645
C         -15.70412870708801   -0.41801583508127   -1.93985887822968
C         -14.65838474085651   -0.05748141158196   -2.81520772640788
N         -13.80976104460881    0.23240140809937   -3.53001375220663
C         -16.95785920598370   -0.64641560989500   -2.54534178511178
N         -17.97504954857263   -0.82861621705486   -3.04220127934130
C         -17.84371122473966   -1.29050385037666    0.46255357367686
C         -18.23981978382543   -1.60102234422086    1.74623157134435
S         -16.93013475764702   -1.43692950039011    2.90739487052907
C         -19.52615319283373   -2.02280100068904    2.18430374734596
C         -19.87162502464017   -2.49741520712767    3.41666759380275
C         -21.24017143955740   -2.84077307452089    3.52932519144225
C         -21.90832863564508   -3.38625987487539    4.64365729464706
C         -21.17619598647525   -3.78936199765779    5.82638688919014
C         -19.97191075663968   -4.43135693574308    5.88081113837300
C         -19.54730333680969   -4.68237996920803    7.20330828960370
C         -20.40639405539794   -4.23868117015459    8.16584626055712
S         -21.78742103229777   -3.49548454514486    7.43128825378343
C         -20.27931262370882   -4.33163216659886    9.64192208319504
Cl        -18.06343600811552   -5.48594400994142    7.55271715726639
C         -23.28574294998623   -3.53623832669162    4.52603200531338
C         -24.00265713227628   -3.22981895495814    3.34534771847551
C         -23.32163014432103   -2.76249151047148    2.20371090950927
C         -21.95373350005082   -2.55740043335942    2.33862381520813
S         -20.89324568812293   -1.96092996172003    1.09054472041926
C         -24.02558584210227   -2.51893830609740    0.96058543378234
C         -24.99427258093492   -3.28732195327254    0.38134579552963
C         -25.47169393284539   -2.73962828383393   -0.82928766173108
C         -24.88646497018268   -1.55917906007939   -1.18419799966563
S         -23.70308287223258   -1.10496504302878   -0.00504787291706
C         -25.14200092021814   -0.71301945259334   -2.37653912773984
Cl        -26.69656959108543   -3.51175352161854   -1.76467924237682
C         -25.39594862279808   -3.44150417535776    3.50536694325755
C         -25.74794161530664   -3.92414445106892    4.72949209001219
S         -24.34746660881756   -4.13821345798288    5.76350755773100
C         -27.06835590274853   -4.24919439136974    5.22656430971084
C         -27.22702290253550   -4.75148576614316    6.53187443012811
C         -28.46315193793995   -5.07152218895339    7.03313366317742
C         -29.60477512079310   -4.90046646005404    6.24462416135189
C         -29.47093991841253   -4.39678659800242    4.93310381958648
C         -28.20131812976532   -4.07961328586756    4.44364735454113
C         -30.65656037792806   -4.23246088926404    4.16107426702373
C         -31.87890979469081   -4.54893263746265    4.66480699217269
C         -32.04243919347820   -5.07797886647379    6.02573789758260
O         -33.08777696904207   -5.38760220560627    6.55197570952584
N         -30.84774287031340   -5.20859261227804    6.71293458706517
C         -33.04383025540807   -4.37457712031485    3.88457435132437
N         -33.97072931090217   -4.22196316499161    3.22851052642926
H          -3.19639746828779    0.82201838563526    3.37812780240211
H           0.48957965253348    1.30518660766196    5.48703434405515
H          -1.72443313383446    0.20618260607347    5.22835041662548
H           3.77759664580858    4.22753024107774    3.93050704443996
H           3.20538574552698    5.68585321320202    3.06749786719465
H           3.89831366190867    4.34027964725969    2.15024835745376
H          -0.52639897171272    4.80112286416298   -0.10947862842942
H          -2.82119645496885    3.89611751454536   -0.29637414939605
H          -4.79704529414249    2.39578453702453    3.41420839659242
H          -6.46257456602390    3.69827830279070    4.37383544130642
H          -7.81387077517176    1.86376555875579    8.69513196748598
H          -7.76610029969926    0.17030829817071    8.17512773014970
H          -9.26846359547737    1.08220280024567    8.05344277727735
H          -6.24639680204773    2.75859763703574   -2.30973685274576
H          -9.08109547290147   -0.50888794970135   -5.36472142133776
H          -7.73718429048756   -1.60363855968557   -5.04824302356455
H          -7.48087077317910   -0.15183113003732   -6.03344554466104
H         -10.17262512805780    0.50334458604939   -0.89380181596350
H         -12.56866688649800    0.29709407260361   -1.09461936523189
H         -18.51367233725165   -1.33554853832919   -0.37719255639656
H         -19.16790149626159   -2.57736637081216    4.22531160206620
H         -19.42439289457431   -4.75802723678121    5.01625380335653
H         -19.33874214203099   -4.81228926312114    9.89906866824611
H         -21.09994062093312   -4.91309492847218   10.06104827468511
H         -20.30631681323845   -3.34055028263069   10.09332673862714
H         -25.32700022521590   -4.23189659486898    0.77061186096083
H         -25.95103306684811   -1.13988517424649   -2.96394766734429
H         -24.24928358683989   -0.64939588090171   -2.99815429892840
H         -25.41467111592751    0.29854984416389   -2.07828751843311
H         -26.10198558925767   -3.21088910105800    2.73012577826204
H         -26.35076221559285   -4.88569921036811    7.14825812463781
H         -28.56366976429704   -5.45626426661423    8.03710122356473
H         -28.12278220377908   -3.69660987188776    3.43861829508565
H         -30.57166617326563   -3.84590749093339    3.15454305826877
H         -30.93257211226554   -5.57122807253545    7.65619620401807
