115
 SCF done       -239.484131250563          0.000429194380
C         -11.79182773083552   -5.62255840875147   -2.69423552655713
C         -13.09432298819114   -5.88980512027347   -3.08934642519146
C         -14.17429899369960   -5.35806257963332   -2.39823411921219
C         -13.98719452874981   -4.52873613222967   -1.30187406328908
C         -12.69134077250170   -4.24254401004455   -0.90227406445845
C         -11.59469043662171   -4.80407455221416   -1.59592258686829
C         -10.37138207935997   -4.37587040920913   -0.94127147755768
C          -9.16734547479469   -5.02345756968304   -1.00699158253457
C          -8.87805860576174   -6.07441786593231   -1.90093973485655
N          -8.55494561952385   -6.91704983946264   -2.60990562947208
C          -8.07870403473030   -4.73763198264322   -0.16123868289536
N          -7.17271926716000   -4.53912945761774    0.51647284324531
C         -10.73787689745332   -3.32073158196594   -0.00609448882140
C         -12.18589117139193   -3.39160603980600    0.16701270105420
C         -12.93827290483146   -2.78419271325816    1.13654427837799
C         -12.43273532676344   -1.99643481062303    2.19207551913750
N         -12.09289933190356   -1.34933085558586    3.07794407597427
C         -14.34085746771808   -2.90495213370346    1.23969994545958
N         -15.47782485914291   -2.95909147766970    1.38663173912676
C          -9.95029161702905   -2.33989522228645    0.53719490936954
C          -8.66908012949934   -1.93719072968714    0.12325608652318
C          -8.00935943698003   -2.11769063153912   -1.10055263914824
C          -6.69522061003498   -1.54277814975311   -1.13666760730787
N          -5.94022886352239   -1.61291527101280   -2.22809872288839
C          -6.43691650637765   -2.26168442890721   -3.26368790483122
C          -5.61277973909448   -2.31184203656822   -4.49759100319647
O          -4.59267569523147   -1.67339826901358   -4.62881637357190
C          -6.16024465575619   -3.16282444532497   -5.57265720474763
C          -7.37300197218244   -3.72366771867222   -5.53070411100574
C          -8.29435251546843   -3.57946706618989   -4.39227589345362
O          -9.40169298488949   -4.07286706507167   -4.37634401243693
C          -7.74524212678567   -2.82266588259362   -3.23459603432304
N          -8.52282282642039   -2.71685489932849   -2.17915977337552
C          -6.35242749677114   -0.89305014670042    0.06837332774651
S          -7.66642442348058   -0.98610395518489    1.18433910291036
C          -5.12628836750232   -0.28085947357277    0.36861605661615
C          -3.96067498385760   -0.32634087881995   -0.39321439650646
C          -2.92800281181007    0.37648747299307    0.20868094869046
C          -3.30989780146839    0.98701316198402    1.42624992168069
S          -4.92669760851571    0.65610261863637    1.84772783449855
C          -2.20949051258540    1.70817071527552    1.93453424623736
C          -1.12108936314672    1.55547715611657    1.05493760043490
C          -1.52921787864902    0.69253045161032   -0.04429187993179
C          -0.74555528573617    0.23541771454145   -1.06059604654125
C          -1.19855689607614   -0.69086571193650   -2.02686204628673
N          -1.52162082455146   -1.47168975050582   -2.80038240930481
C           0.60630122649540    0.62300256040127   -1.18969329185218
N           1.70210721613760    0.94119958414183   -1.29881767301910
C           0.01677155746101    2.23925823889023    1.48047223171077
C          -0.19971987922241    2.91588166867926    2.66730936531976
S          -1.83144679268692    2.69651377015080    3.27679774439277
C           0.71836988535398    3.72137264078758    3.39142833092533
C           0.46898640780128    4.43360026303289    4.53223447728577
C           1.59138405922729    5.14217367022411    5.01544590512894
C           1.67064260059390    5.95230046333616    6.16694322048104
C           0.54362685351073    6.07571525246654    7.06811002496999
C          -0.29254235172993    5.08715815942490    7.50378276935397
C          -1.29732431567127    5.56715055217307    8.37081748489404
C          -1.24653483442187    6.91143964883039    8.60281686596234
S           0.08030966100211    7.61427920708605    7.74102118046098
C          -2.14722170996952    7.74478110109085    9.43804811570878
Cl         -2.48125380006477    4.52799847062361    9.06822209897360
C           2.88040440987018    6.60012445028034    6.38543631284702
C           4.01549523130402    6.42845607272323    5.55332227573668
C           3.95140226020417    5.58127545207821    4.42688223534263
C           2.72326408666492    4.97751026461355    4.17807975066416
S           2.37288800137916    3.90706014880303    2.84698318347682
C           5.09305985636797    5.33078549385163    3.57081761167857
C           5.10850977975186    5.19713085740775    2.21133443268897
C           6.39256009827273    4.90141429394028    1.70578461970241
C           7.36336560730968    4.79059769337762    2.65905684524332
S           6.68732269787947    5.06823326726349    4.22648299373187
C           8.80554415149327    4.48395470746067    2.48954364050700
Cl          6.69167147384149    4.69905152746585    0.02312856211932
C           5.11631291730866    7.19816427565316    5.99996372354537
C           4.85015506847376    7.91906618036461    7.12721338724154
S           3.22238049601512    7.66845500995708    7.71526374352310
C           5.70004865680320    8.77031602029576    7.90042404881968
O           5.34571926851744    8.98802891885017    9.17292502541904
C           6.29732688114912    9.73665721859617    9.76837705775779
C           7.30133774322692   10.03025693728789    8.85140494090635
C           6.89901927140931    9.42412624847501    7.62626992522456
C           7.50717984745401    9.54755235174439    6.27688298589478
F           6.58723913151953    9.53699525603811    5.29795481168888
F           8.19181842384174   10.68674493221312    6.10267149089997
F           8.37083161923886    8.54765409405254    5.98190084959864
O           8.38048249567749   10.74926390201988    9.20163112931264
C           9.61613022323834   10.53624659737516    8.53727860928505
C           6.19362475889955   10.12663067314229   11.14573248855115
C           5.17336978473689    9.80405396492991   11.93775160658548
H         -10.95663279156064   -6.01565118916890   -3.24951601287924
H         -13.26879542738349   -6.51764850766454   -3.94966773283759
H         -15.17914835397345   -5.58315180382577   -2.72217977521345
H         -14.83845226259798   -4.11484796539736   -0.78650364012009
H         -10.36817933115264   -1.75051349145269    1.34309439501285
H          -5.51313816019037   -3.28528369601633   -6.43062696739472
H          -7.74666642466260   -4.32325629963366   -6.34959438743121
H          -3.91696068083024   -0.85214502076587   -1.33048919523705
H           0.96149908878538    2.26167530527288    0.96773161238908
H          -0.50156466566882    4.46778589840584    4.99311230629577
H          -0.17516098449517    4.04746004932495    7.26018902093061
H          -2.76153082228333    8.39168275007381    8.81139900646454
H          -1.57003711936235    8.37844261041944   10.10905518973266
H          -2.80150391237303    7.10445569530131   10.02445581506865
H           4.25314943865487    5.34262470106947    1.57839522476071
H           9.04518568961371    3.51235222567072    2.92176088849894
H           9.41755870372585    5.23332387433599    2.98924048932260
H           9.05376725546716    4.46742557766522    1.43139284914972
H           6.06722241149999    7.20281734793403    5.50471666071524
H          10.38892454626341   10.67232292198126    9.29403705122083
H           9.76144198418285   11.26985257511108    7.74211535110413
H           9.68743751642812    9.52702779763531    8.12744903455694
H           7.02809882785431   10.71499178564138   11.49763222671170
H           4.34536346414837    9.22109025064341   11.57234067351842
H           5.14081440891200   10.11501452782185   12.96617808055974
