107
 SCF done       -202.120285977061          0.000525249831
C          -0.96806259609895    2.47792728648525    0.71828652852449
C           0.11829927706478    2.54119973295840   -0.14165686029748
C           0.33527482048525    1.55861309399815   -1.09767333446650
C          -0.53447458657644    0.48678360351150   -1.22593282575991
C          -1.62305941976655    0.41248073515815   -0.37182002597678
C          -1.84211582221851    1.40745662279550    0.60892192593900
C          -3.03305960573635    1.06397276298698    1.37651785669056
C          -3.59334993316514    1.81939186626033    2.37038112803025
C          -3.10887632912173    3.08353382122913    2.77111050023573
N          -2.76916329692565    4.11368534298775    3.14586940488665
C          -4.73019745253891    1.46910739606425    3.13080518473977
N          -5.63366784131924    1.25556821554483    3.80595214510142
C          -3.46840178805774   -0.24866443667806    0.91117684918418
C          -2.70831252292226   -0.54986160729825   -0.29792071345715
C          -3.09973690427667   -1.38956528236925   -1.30793306105186
C          -4.34407982444262   -2.04600822496380   -1.34609745174859
N          -5.37494553762731   -2.53086584938846   -1.49103680965907
C          -2.34700111449479   -1.63926836985653   -2.47234605831899
N          -1.76158900212010   -1.91629488532672   -3.42037047940083
C          -4.34954492391096   -1.06482247928140    1.56136976056737
C          -4.46170476205641   -2.47779812184170    1.40947357239118
C          -3.40376594465345   -3.28716642142938    1.13831188233056
C          -3.52982692686910   -4.68568065762658    0.97544000057663
C          -4.73484780535027   -5.30550664408288    0.99629717569089
C          -6.01213194627489   -4.54584694451958    1.29479071678023
C          -5.81010801493153   -3.07934663799964    1.75878611315936
N          -6.79548483027845   -2.14486863026848    1.26768053425557
C          -7.49144731135577   -2.43634097880692    0.26309772459664
C          -7.44503183803736   -3.75986018796821   -0.38520678906251
N          -6.80356399885424   -4.72549286607945    0.09829029971027
F          -8.15257372445073   -3.94129194240869   -1.48946328109788
F          -8.34887180453372   -1.54290555909056   -0.20865415265550
C          -4.90149098092996   -6.68422840983390    0.65097214924040
S          -6.10418328919898   -7.62957291170277    1.45847500766236
C          -5.66927501240346   -9.06213889596752    0.56391005740086
C          -4.63172767276521   -8.78839373863005   -0.32734298155706
C          -4.22029720141774   -7.44356027963362   -0.29235169851502
C          -3.26341312378455   -6.88952314677497   -1.31607463010987
N          -3.56176203339031   -5.50016878006439   -1.62163760404765
C          -3.29740808776040   -7.81788389193760   -2.54204360740772
C          -2.90884668413709   -9.22548278249531   -2.12142989202335
C          -3.94311625235041   -9.84109345796865   -1.16993446980002
N          -3.26547002041143  -10.84474234893422   -0.35934304383521
C          -6.44337868318480  -10.21091049360687    0.86887458858864
C          -6.45456280552800  -11.42633127635202    0.25607106308915
C          -7.24567730080433  -12.53700518897122    0.65195497630573
C          -7.00096129955355  -13.77318742017321    0.11115321193352
C          -7.62837347069947  -14.94685858487913    0.55879804403567
C          -8.65545046541407  -14.94047529212268    1.47048016213309
C          -9.28663530157218  -13.59767266171514    1.76067310437100
C          -8.27995875899092  -12.43124623853037    1.75714648439096
N          -8.96677724735745  -11.15950683945157    1.69085276404253
C         -10.04003256577101  -11.09677690621709    1.03666329939291
C         -10.66350053137991  -12.28694117876108    0.42533563302290
N         -10.32634785545679  -13.45214039675487    0.75597766801880
F         -11.60193969280976  -12.10594247914505   -0.49444719712972
F         -10.67073304998011   -9.93398357282945    0.93408468434014
C          -9.22312400827938  -16.16621536460485    1.87636373724122
C         -10.11985142390325  -16.47726423214555    2.87047188275535
C         -10.94849489475224  -17.68000487388500    2.84657567196718
C         -10.77857871011587  -18.79932560580410    2.07644093731062
C          -9.72578039660161  -19.03266034016230    1.16593860268033
N          -8.89993011516289  -19.31354421462985    0.41853991030449
C         -11.62549497182516  -19.92796663219198    2.12898694561708
N         -12.26463646586824  -20.88115861368201    2.12326912762653
C         -12.01261743164421  -17.47900392090278    3.82324332080480
C         -11.74864918531814  -16.29231150850823    4.54259809557617
C         -12.61483465525217  -15.85435602663340    5.52972266700361
C         -13.74887420387004  -16.60793065776238    5.79558289044297
C         -14.00773803257590  -17.77680380819282    5.09506681107946
C         -13.14564228881678  -18.22509387993178    4.10445620710351
C         -10.49516473930974  -15.73493834029867    4.05812725307663
C          -9.69328340445808  -14.86390731339253    4.75481088995882
C         -10.06867961048541  -14.23884831073350    5.96159972064251
N         -10.32395863860512  -13.68405731519840    6.93346623372855
C          -8.37236764918260  -14.55008234005499    4.38481138023022
N          -7.29097471842797  -14.26264639772850    4.12299310798246
H          -1.11726164203926    3.25024011470123    1.45443201133478
H           0.80599410309064    3.36906165031442   -0.06187328804136
H           1.19155280770360    1.62765160762737   -1.75083831058996
H          -0.35577453416768   -0.27454224765899   -1.96806185655290
H          -5.00255829876417   -0.62946566546477    2.30524158779754
H          -2.41826757811872   -2.85542887885837    1.03471829198901
H          -2.63576459014443   -5.25922314669584    0.80121420668583
H          -6.55608749292342   -5.09594772836514    2.07713637724210
H          -5.89693424411804   -3.03775928144851    2.85404707012623
H          -2.24102161688272   -6.90865820020593   -0.90729793616856
H          -4.53305841259685   -5.38974341323155   -1.89290580719803
H          -2.98314949795671   -5.18317871350021   -2.39171719073576
H          -2.59967464887687   -7.44600660828275   -3.29506926599815
H          -4.30158747553788   -7.81320580947698   -2.97320198030497
H          -1.94159055883670   -9.19190496748188   -1.61486114361133
H          -2.79846682414977   -9.87352220693874   -2.99007775673657
H          -4.70368866840826  -10.35687549311581   -1.76871000180719
H          -2.55181381190573  -10.40466884610305    0.21207988663852
H          -3.90688702655279  -11.32109578614926    0.26399827171320
H          -7.12691435304715  -10.06380360771174    1.69401394568635
H          -5.80872107570626  -11.62245189697569   -0.58671763668397
H          -6.23435534281851  -13.86488407585747   -0.64460078813811
H          -7.24755062697585  -15.89364108682246    0.20370424375338
H          -9.81377494230972  -13.59651733412246    2.72154083030862
H          -7.72557452496594  -12.43974015716217    2.70865399617627
H          -8.94052665612250  -16.99434613182080    1.23829387977275
H         -12.42796650662526  -14.94321662942103    6.07485022236145
H         -14.43831045689207  -16.27608667897940    6.55665709847818
H         -14.89563674417511  -18.34794845721780    5.31892433832536
H         -13.36797051600872  -19.13257720642482    3.56808607690262
