71
 SCF done       -143.728905654969          0.000514472437
C         -12.68643493840368   -2.56786975461383    1.95200807871596
C         -13.56668618847260   -3.22154825012916    1.10401061841663
C         -13.11795870554020   -4.18088041970517    0.20480021112683
C         -11.77596048295266   -4.52112059536559    0.13331381157473
C         -10.88536585919566   -3.87916885629209    0.97906062957722
C         -11.33929458135866   -2.89343736040851    1.88818220780824
C         -10.20228601317399   -2.37775011345882    2.63256404530252
C         -10.23385288903630   -1.56931287307115    3.72890878769788
C         -11.42538577575162   -1.07537998288484    4.30797411311499
N         -12.35800242197189   -0.64720167597610    4.81950915405729
C          -9.09538875396087   -1.16540130788312    4.46485508390320
N          -8.22074703184594   -0.81291631025134    5.11703988251289
C          -9.00114486715549   -2.92326128136271    1.98092036025226
C          -9.45507655832238   -4.05895353522612    1.16207296205870
C          -8.73795559654856   -5.17024356615117    0.84178531980236
C          -7.42649083484055   -5.42219975446479    1.30555081180815
N          -6.39606432341355   -5.70617864455802    1.72131497809734
C          -9.24748784322382   -6.24341436099193    0.07881965945332
N          -9.61584835416336   -7.13485487882687   -0.54174675050908
C          -7.79270782551988   -2.32597993347032    1.99987446586086
C          -6.67249274990032   -2.64838600907198    1.13594850490653
N          -6.91100740898383   -3.27286406188140   -0.01379492316076
C          -5.84942977827422   -3.59737885227055   -0.72949790517607
N          -4.59761565580286   -3.30143223453215   -0.40438001285048
C          -4.47654023921767   -2.61731663010363    0.72221790603231
N          -5.45715402070073   -2.27304951078147    1.52909707807788
C          -6.13527368221313   -4.42295773263266   -1.92051924386652
N          -5.34289577457089   -4.36136093068193   -2.97636800389730
C          -5.68379733372625   -5.16267534886449   -3.98168745244139
N          -6.70751483877516   -6.00344414747978   -3.96685599320470
C          -7.43431541000021   -5.98145126567205   -2.86618490723353
N          -7.20867232744804   -5.20383004638167   -1.82372548584959
C          -4.85643595157526   -5.07819921069415   -5.20042673348964
N          -3.68840415328406   -4.47660086031510   -5.06608124571692
C          -2.98535800929054   -4.31254270988632   -6.18408570241512
N          -3.35935866527724   -4.79529520428581   -7.36702272975157
C          -4.52770142335753   -5.40766204774459   -7.37999204424088
N          -5.33124973512352   -5.55915870610433   -6.34205755331101
C          -1.71004862882109   -3.62639251948040   -6.09271817060539
C          -1.33962111327374   -2.81780775310606   -5.07991103434650
C           0.05073345227438   -2.42654141358059   -4.79523711263256
C           1.06649307426084   -2.32437373690718   -5.69725072332521
C           0.92707391005423   -2.52193759345095   -7.09082087639139
N           0.88200581290094   -2.65583393269440   -8.22857552965402
C           2.38620119445653   -1.95208932404700   -5.35252421434661
N           3.47076961114166   -1.65523830545939   -5.12867290740477
C           0.11380307194333   -2.16712755728400   -3.36587155255263
C          -1.20161087221094   -2.15849785481511   -2.84460419390559
C          -1.43067292071996   -1.97421942154842   -1.49158167928864
C          -0.33737053241044   -1.78010760874661   -0.66157004144870
C           0.95519921021535   -1.76705423866974   -1.17229319540199
C           1.19706210005849   -1.96325573463566   -2.52342778373247
C          -2.13911916864796   -2.35230676510005   -3.93485339815786
C          -3.43675642489589   -1.94445217585321   -3.95505602137131
C          -4.10816981874085   -1.37444023142952   -2.85190726998920
N          -4.70429639450671   -0.87503616578490   -2.00855152978188
C          -4.24545726452368   -1.94161326014772   -5.11470144722306
N          -4.92320633251159   -1.86362512565611   -6.03645901206067
H         -13.04871861492017   -1.81931219228335    2.63761159399282
H         -14.61683661570990   -2.97615187694692    1.14188002804570
H         -13.82360337135402   -4.66924474479065   -0.44954445582428
H         -11.43579070267475   -5.26005986611227   -0.57370867875542
H          -7.60572825590546   -1.49526596023925    2.66541285719633
H          -3.47680989346124   -2.32871888528403    1.02206710450052
H          -8.28205949286336   -6.65316733052091   -2.80725718855274
H          -4.86047676235970   -5.81627614792527   -8.32544302596899
H          -1.01551047649324   -3.87331900093091   -6.88276631479969
H          -2.43337655535079   -2.01048608661896   -1.09955256126740
H          -0.48985510511177   -1.63992029289268    0.39770897755093
H           1.78932016397226   -1.61147551951149   -0.50539719128628
H           2.20734071850129   -1.96647241310589   -2.89917543424290
