155
 SCF done       -261.489811639684          0.000412713363
C          18.10423150503457  -10.22540235738036    2.73280916789682
C          17.59524984989879  -11.46999282416713    2.52465555243193
C          16.21378476327751  -11.55270813618180    2.79091762146215
C          15.71088269173016  -10.32367684905049    3.20666471702742
S          16.91462555238303   -9.09563924026872    3.26739477345026
C          14.31808724996932  -10.28778053634067    3.49612675465890
C          13.63312181885327  -11.48918226268924    3.32248730478868
Si         14.82943866746882  -12.80913127349342    2.75087319301804
C          15.02049071465823  -14.19553538810895    3.98455322846791
C          14.48500499761306  -14.11444898634423    5.27220041824780
C          14.63153738872667  -15.14865587773447    6.17771678170273
C          15.32144882745548  -16.29385504732923    5.81759708144276
C          15.86299635543802  -16.39691960714372    4.54688515017217
C          15.71317180740061  -15.36066373465164    3.64517015945513
C          14.48125248545043  -13.45831615147404    1.03644851343032
C          14.90427092101027  -12.77239481811325   -0.10506764128187
C          14.64121353209199  -13.25615663501427   -1.37277859909483
C          13.94423649058210  -14.44223179765398   -1.53204468381188
C          13.51241186447871  -15.13870160087140   -0.41560083276388
C          13.77818523088412  -14.65108698375157    0.84991204339827
C          12.27433593494243  -11.34868680197752    3.62595923893748
C          11.92415144309295  -10.07729429823403    4.02326898160841
S          13.30490952170005   -9.00465596184403    4.02928306095162
C          10.63545570195188   -9.59744865674263    4.38747590500874
C          10.27302391559813   -8.34811220981523    4.78985888304533
C           8.88912603136105   -8.20784044579577    5.05848276260175
C           8.16491942808619   -9.40874526680638    4.84861155811729
S           9.25801667164363  -10.68102065867134    4.32811112491270
C           6.79478614123217   -9.46635649479162    5.04444727917633
O           5.95173872355421  -10.52298063171747    4.89045183460558
C           6.44605169614405  -11.76419520442595    4.45231472385391
C           6.16910438920291   -8.27465500680958    5.46012817844193
C           6.89379857549646   -7.07577110804280    5.67952297862906
C           8.26450220693983   -7.01885614122339    5.48308202776707
O           9.10837674757291   -5.96290617454157    5.64091215997936
C           8.60632644682492   -4.71023236562014    6.03716347467347
S           5.79762008069352   -5.80257650487344    6.19242879694297
C           4.41644489945772   -6.87576435284262    6.09072025059237
C           4.78051700742035   -8.12658422723483    5.69760836164670
C           3.11101828675050   -6.39098503214910    6.39341915779926
C           2.75833877683752   -5.14752754064494    6.82957907793958
C           1.36385848335009   -4.99642416235973    7.02550236099804
C           0.65828530604859   -6.17252756920918    6.71569616910939
S           1.72096051358857   -7.44756588034622    6.19935126068893
C          -0.72175378981284   -6.28835042878564    6.81047523236031
O          -1.22198873262612   -7.51433373283198    6.47945942859214
C          -2.52218411018829   -7.64945403777413    5.95484894813861
C          -1.41778975185402   -5.15735889932811    7.26592767535051
C          -0.70357212775869   -3.95358482574075    7.56526783300069
C           0.67282380933960   -3.84396904954308    7.45325903774574
O           1.47593960221079   -2.77308519295308    7.69617350891444
C           0.94303868830434   -1.55684008311830    8.15825140121303
S          -1.81718842932386   -2.70245969975243    8.10438804352428
C          -3.18277824889426   -3.78250470075660    7.96097610493807
C          -2.80898099669054   -5.01328605744831    7.51333084540958
C          -4.49044392128646   -3.33849595185771    8.29921769064622
C          -4.87549998778848   -2.10998059844362    8.78988671757365
C          -6.25046806566262   -2.00016558610075    9.02041370795007
C          -6.91589496632055   -3.18307551907963    8.69326616137354
S          -5.86135011384639   -4.40983122281318    8.10903034966680
C          -8.31839220556188   -3.18260948650671    8.89529985160195
C          -8.86127948715715   -1.99689922206565    9.39426319344790
Si         -7.48888389160657   -0.75038821151930    9.65546311663513
C          -7.26064111855705   -0.33309751165739   11.46032807132773
C          -7.42984384221163   -1.30759449434045   12.44856899943399
C          -7.26044356976877   -1.00997304674797   13.78700272875741
C          -6.91604302179652    0.27492042811419   14.17338476226149
C          -6.74226407308917    1.25666101025802   13.21256999927563
C          -6.91207158816745    0.95410433317578   11.87439258737247
C          -7.62283929663546    0.77346488052093    8.59071342329388
C          -8.59967519583061    1.73666343328343    8.85830382154857
C          -8.70400341070162    2.88538656770257    8.09780824655998
C          -7.82907924296418    3.10195787134880    7.04580537928212
C          -6.85402482695710    2.16147082212782    6.76045669776942
C          -6.75461791740782    1.01260484066567    7.52333021797765
C         -10.24388555200437   -2.10440398076811    9.56876932128779
C         -10.75575579951149   -3.33552777088637    9.21530249268989
S          -9.49925247321206   -4.40942282089901    8.64245648926908
C         -12.10317498963316   -3.77947304705015    9.27487682334319
C         -12.60973700483067   -5.01359864987937    8.92639601694128
C         -13.99151511987908   -5.12762595932030    9.10915219589117
C         -14.53756665925699   -3.94679375571835    9.60997650951233
S         -13.36431781102826   -2.71217831106848    9.85164345144618
C         -15.94258938617627   -3.96025159726770    9.82957388633850
C         -16.59565793588361   -5.14831112931126    9.51461019043717
Si        -15.35117107728574   -6.39322342716935    8.88309361471660
C         -15.59691510068882   -6.88440408630665    7.10069829238604
C         -14.92597775324185   -6.23961197962090    6.05891130685171
C         -15.11455638456268   -6.61490332193596    4.74181149934302
C         -15.98349467693770   -7.64734384848223    4.43197443102613
C         -16.66175320295039   -8.30075347294487    5.44772023715835
C         -16.46931456153177   -7.92234425854185    6.76264857066216
C         -15.18503639380667   -7.87941633184398    9.99950703729419
C         -15.53300250500528   -7.81484062402036   11.35155366562566
C         -15.40382879094757   -8.91334279549000   12.18008162482244
C         -14.92034114504230  -10.10932708829716   11.67609571174215
C         -14.56695973262617  -10.19720053440595   10.33998432381750
C         -14.69778387140359   -9.09575353004170    9.51533137296502
C         -17.97735105771121   -5.04977119344771    9.77354708732663
C         -18.34237657898379   -3.83421979498871   10.26404909465826
S         -17.00946810948423   -2.75108077235108   10.43091402636988
H          19.11479564981502   -9.88961191790254    2.60619867874311
H          18.18880008772975  -12.30215123361261    2.18945082937410
H          13.94228938456028  -13.22520471659290    5.55954226695902
H          14.20558945667530  -15.06312991696331    7.16709304599078
H          15.43598158297860  -17.10364735893834    6.52345950177718
H          16.40187717062007  -17.28849729968348    4.25952102621510
H          16.13450840190136  -15.45042218603016    2.65368703181347
H          15.45112924760462  -11.84740176537155    0.01173289870881
H          14.98078414898683  -12.70851702221147   -2.24022619903311
H          13.73913080113943  -14.82290224174103   -2.52206806856760
H          12.96833475485643  -16.06499495392880   -0.53323390969001
H          13.44168333921550  -15.20288393223432    1.71637778809073
H          11.55501851998859  -12.14666710813214    3.56025504078154
H          10.96699255484413   -7.53420946518610    4.89380203192456
H           5.57565281145966  -12.41766854305056    4.40381657808837
H           7.17211128677432  -12.18289100449085    5.15416653241260
H           6.89917712073718  -11.69298310124554    3.46008701096652
H           9.47456069556020   -4.05329652432949    6.07546081584535
H           8.14245732543376   -4.75341956884080    7.02613755911320
H           7.88639813785470   -4.31534060738415    5.31554533595183
H           4.08186430853495   -8.93365280305156    5.57534033515181
H           3.46505171651827   -4.35777189829569    7.00863819025784
H          -2.49397436877458   -8.53824120426759    5.32285559746691
H          -2.80857523764049   -6.78620792598919    5.34973645604819
H          -3.25833132477688   -7.80979711817769    6.74878897703741
H           0.45501991479806   -1.66935931859008    9.12997765858880
H           0.23827051076081   -1.12293020410177    7.44395426336063
H           1.80027005164954   -0.89251179652332    8.26339835032280
H          -3.53373352491739   -5.79600029527709    7.39492423778842
H          -4.16613379121511   -1.32203246679198    8.97625193915250
H          -7.70162266137792   -2.31151209969587   12.15375052666646
H          -7.39811637465998   -1.77985714695951   14.53254416894016
H          -6.78453397684534    0.50999253660226   15.21954608219549
H          -6.47412749953196    2.26089920618285   13.50802456645751
H          -6.77675927170529    1.72632475533388   11.13013160782044
H          -9.28336624891876    1.57602729532279    9.67994237829983
H          -9.46770433184878    3.61541593367638    8.32472833147398
H          -7.90763380531275    4.00047062827876    6.45120693375703
H          -6.16870447572775    2.32518148246172    5.94118773887875
H          -5.99056311747822    0.28368060687565    7.29415468203090
H         -10.86855457508435   -1.31323840107756    9.94533127552517
H         -11.98390440697486   -5.80441904795899    8.55036167674130
H         -14.24381479928607   -5.43472683903261    6.29274200404778
H         -14.58168782813715   -6.10222575180279    3.95386506795915
H         -16.13133493378045   -7.94278755179258    3.40340562007738
H         -17.34091054710893   -9.10769166175313    5.21227289268712
H         -16.99892610897351   -8.43986174792887    7.55024911821331
H         -15.91416651619391   -6.88547475047873   11.75079600791647
H         -15.68170657109531   -8.83901711404804   13.22169312848091
H         -14.82005373281211  -10.96964471778309   12.32175607204515
H         -14.18900381700420  -11.12756047724707    9.94077566376082
H         -14.42256624666134   -9.17345571924824    8.47287249770607
H         -18.67458460910801   -5.85104294385433    9.60347123379028
H         -19.32062641764094   -3.49519071663034   10.54345555496655
