120
 SCF done       -225.312623993234          0.000134135557
C         -13.56249314310734    1.25297928870586    3.47444888314760
C         -13.48377721042627    2.18874490912384    4.49599818160811
C         -12.47833247392113    3.14441478125776    4.51801223176467
C         -11.52435445252443    3.19697025304786    3.51264917637496
C         -11.59011069076484    2.26421339632700    2.49198983470485
C         -12.60849650261456    1.28419763212759    2.47039994812179
C         -12.41933557584330    0.43278513562392    1.30003838041759
C         -13.26730617697604   -0.55769454765987    0.87988404217374
C         -14.46772826778791   -0.89995740304991    1.53677367135792
N         -15.45468415291445   -1.22969556435403    2.02182667579555
C         -13.09683411531625   -1.34466652777584   -0.27922863841941
N         -13.03903902189001   -2.02224189946672   -1.20458031900656
C         -11.16240803129871    0.83913142133009    0.68916029601753
C         -10.78223886084220    2.10372799480796    1.29370135487538
C         -10.02046964125141    3.08411458892167    0.70760462035767
C          -9.64807684411901    3.03921529438307   -0.65259180745905
N          -9.39682598592702    3.06092214380518   -1.77245896312520
C          -9.59213064327219    4.25411774504284    1.35867870764489
N          -9.15638828109208    5.19236776035330    1.85911397844513
C         -10.41533615463502    0.01819955416277   -0.12314516581916
C          -9.04681247673203    0.03087053605372   -0.40225774715764
C          -8.40951604648163   -0.92924127472409   -1.21559773470732
C          -6.99628921825257   -0.78275516736211   -1.27578314606421
N          -6.23364125881364   -1.60115125047696   -2.01911087094868
C          -6.85420244277022   -2.54300063094915   -2.68449461579052
C          -8.27972380058118   -2.70365279203821   -2.61223368249317
N          -9.03018912874223   -1.90902021277420   -1.88894870233256
C          -8.97365109994852   -3.78972433274062   -3.35682481031575
C          -6.01633471459176   -3.45190031308650   -3.51546092817345
C          -6.52895262705189    0.29355669324610   -0.51172339805364
S          -7.83806408638468    1.07204448071116    0.29966482489608
C          -5.21839841362124    0.79226504951711   -0.39677743101904
C          -4.87912644102789    2.00164372995399    0.15921562826995
C          -3.50206007169314    2.27291026274268    0.12883606401491
C          -2.85005875583035    3.45540224395420    0.55483158335735
C          -3.56916554704747    4.55818576670583    1.15368684883169
C          -3.33112404392169    5.89684838431924    1.00134902194132
C          -4.23506834262262    6.70215617619089    1.72498282539895
C          -5.16190233958743    6.00666995298989    2.44946439307887
S          -4.91519123855443    4.30930346140065    2.23962287800971
C          -6.27562857662482    6.51536563677017    3.28401651496418
Cl         -4.16440928082743    8.42087864026988    1.68426340183428
C          -1.47846357037879    3.50288520611668    0.34060574958181
C          -0.74141295342128    2.43829340532699   -0.24826710739777
C          -1.39946575331589    1.26356562949454   -0.68556080994082
C          -2.77347011006712    1.21485991269243   -0.48098386802920
S          -3.83217710114613   -0.07791851754500   -0.99589741471763
C          -0.69781596577476    0.17410158287216   -1.32900213208983
C          -0.97014475440658   -1.16392546805870   -1.23776745050694
C          -0.12203234151091   -1.95030900098755   -2.04254723724845
C           0.79199157914651   -1.23781247793659   -2.76598822996249
S           0.61678029656035    0.44987105471911   -2.44077409821684
C           1.83379823315343   -1.74883719437180   -3.69333359542747
Cl         -0.23350662501742   -3.66627954500905   -2.11113748848950
C           0.63740523631352    2.71153288174397   -0.28307579222274
C           0.96856318476605    3.94554925088639    0.22323995363442
S          -0.43411169670711    4.82254793328968    0.79422478314770
C           2.26652993120710    4.49234998493476    0.26044399760228
C           3.44534688289523    3.88970688706966   -0.21254856117590
C           4.59065338412945    4.71188537766307   -0.03545463150779
N           5.81229092521524    4.29535480909077   -0.39956601769397
C           5.90070454544784    3.11021655429644   -0.94985310746491
C           4.74127759707497    2.29198050169532   -1.16061179692393
N           3.54761822580005    2.67646631171937   -0.78377889010764
C           4.84405516689807    0.95616888223485   -1.81443031058734
C           7.25962171510327    2.64698693921869   -1.34298392113382
C           4.30477826281500    5.97030417687297    0.52789224604264
S           2.60132025248125    6.06563381619554    0.88463337724231
C           5.28924551616238    6.91076002693588    0.84462879082317
C           5.15547332673838    8.21917036691532    1.24092891235094
C           6.15144403666859    8.94769299772961    2.01028754138752
C           7.46668461022861    8.61199318507922    2.20222995721100
C           8.37051257262686    9.37186012642304    2.97391923098025
N           9.16014534582605    9.93887277991296    3.58486710217187
C           8.12476318703006    7.49841098241072    1.63916554481570
N           8.73969416280226    6.62197652177934    1.22301062079287
C           5.47756094983061   10.11475526412419    2.56997193007279
C           4.16485703180062   10.17764729364397    2.05030992160770
C           3.29569023967066   11.18247446535466    2.43879369768267
C           3.74401393672930   12.12862010124445    3.34859492637608
C           5.03580278710907   12.07683609130055    3.85171430976304
C           5.91469759942443   11.07363843821894    3.46959623329654
C           4.00072123639989    9.09026718371497    1.09780601740871
C           3.10354735993538    9.07204015288057    0.06115767384517
C           2.04816770882504    9.99466802111663   -0.08210351885557
N           1.16413636403761   10.70947015894430   -0.24061374680019
C           3.20668792687913    8.19915458284285   -1.04112747498199
N           3.29049605180509    7.54267090070685   -1.97948605958953
H         -14.35173466209578    0.51942095634181    3.47532668561908
H         -14.21846720120197    2.16877754270762    5.28638455368020
H         -12.43640454858725    3.85794940561366    5.32674999711827
H         -10.74444843818647    3.94118838643066    3.53722249630412
H         -10.90439702019356   -0.85135092089811   -0.54641734738169
H          -8.79714802349884   -3.68793282546392   -4.42658856288497
H         -10.04018509888469   -3.73098093095815   -3.15939956441818
H          -8.59943943852053   -4.76441468557566   -3.04698870184259
H          -4.97371976419886   -3.16213065187768   -3.42046666821738
H          -6.31494158433676   -3.39230149450080   -4.56096279150676
H          -6.13680472517870   -4.48430707704559   -3.19077234217361
H          -5.62663994199552    2.67425610711224    0.53605078415556
H          -2.57436771855636    6.30857669998771    0.35991450265468
H          -6.21793190245582    7.59847141910345    3.35240367035829
H          -6.23351748263028    6.08930726661034    4.28557733549104
H          -7.23412361228640    6.23775376164203    2.84247696729559
H          -1.71904318190408   -1.58559674290640   -0.59429835094464
H           1.44290537939926   -2.58838208140826   -4.26528742661483
H           2.70334813666604   -2.09977315213155   -3.13528787965167
H           2.15456451840544   -0.96601981702019   -4.37568144021360
H           1.39802237773018    2.05166400287742   -0.65483058412772
H           5.28824760673581    1.05264172686451   -2.80360496800948
H           3.85108879875893    0.52440904677795   -1.90482744729825
H           5.47570405865023    0.29240862403713   -1.22576776712181
H           7.98727127231293    3.40351385589892   -1.06394126476152
H           7.30632882606196    2.47980278347707   -2.41813765943268
H           7.50162007684332    1.70861512531851   -0.84635056744634
H           6.28447732085606    6.48256218100941    0.82729055925892
H           2.28843339902585   11.22704550211351    2.05716676580918
H           3.07670397377066   12.91456291924774    3.66772100364161
H           5.36534288714594   12.82621413901384    4.55512183803797
H           6.91297540012873   11.04936938803595    3.87429890738272
