120
 SCF done       -238.340973302297          0.000797099025
C           1.88695682539788   -0.31623124335604   -0.13484818125939
C           1.76467457449972    1.02496127681325   -0.46431797070574
C           0.51850429575801    1.62909986709278   -0.56613307756112
C          -0.64393597346100    0.91220708516414   -0.32915461529261
C          -0.53445701037766   -0.42785161032554    0.00324904430634
C           0.73277384051788   -1.04953779804356    0.09358788902345
C           0.54690885348578   -2.45548288957158    0.41596264230318
C           1.51490099614967   -3.34746197444474    0.77378792858150
C           2.88613357041839   -3.02365267649346    0.87521046841354
N           4.00987349848629   -2.81927702933858    0.97992534937021
C           1.27156464519998   -4.68827194883697    1.14610655926672
N           1.13705007841456   -5.78043064705067    1.47118015416950
C          -0.89166614669392   -2.71896316714855    0.29201999812349
C          -1.55322018712140   -1.41417836953778    0.30773710209332
C          -2.82713292120757   -1.16005448987525    0.72978627437459
C          -3.69531441443017   -2.15129031398856    1.23291922981555
N          -4.42350497606703   -2.91439377788037    1.68444129177461
C          -3.39765405297167    0.12952355569080    0.76828876580796
N          -3.92008332500485    1.15123869791899    0.79151033627193
C          -1.42115681840912   -3.92965483059509    0.00642284207800
C          -2.72962673498322   -4.21511081481895   -0.51401469615166
C          -3.44389836109595   -5.37426396851494   -0.32989960768678
O          -4.59381351519370   -5.34026646580969   -1.00373799465977
C          -4.65034066163412   -4.17057419670173   -1.65014676597947
C          -3.54086712699057   -3.41575164768986   -1.39428412679324
C          -3.16276659134284   -2.11735537598112   -1.99085661231149
O          -2.04163585835171   -1.91026131273875   -2.42644823008237
C          -4.18507520492953   -1.09089681662770   -1.97335099160828
C          -5.43128396962983   -1.07448774943811   -1.37901167737458
C          -6.06451779990496    0.16019831751874   -1.48051723887303
C          -5.30865374796577    1.10479801406325   -2.14768604712242
S          -3.79307850276027    0.45319309734850   -2.66839888870495
C          -5.65781501050324    2.45987377024031   -2.40705744456840
C          -4.94306479204020    3.38625826449146   -3.11093495042400
C          -5.57647863126947    4.64816693666893   -3.19630042201464
C          -5.13405493081561    5.80009118496189   -3.87937915062284
C          -3.91955938548245    5.82516259087817   -4.66860247645847
C          -3.02322347460631    6.84858609353002   -4.79289540917765
C          -1.98108068361312    6.55656444289035   -5.69885022752754
C          -2.07000494032218    5.32717515257120   -6.28527714532351
S          -3.46827202263984    4.49286894194812   -5.70015300395841
C          -1.16722322156963    4.70475880399728   -7.28541797038431
Cl         -0.71078084942011    7.67117604394301   -6.02595449134635
C          -5.94830083477688    6.92381419653106   -3.78576098706193
C          -7.17365877392487    6.94545235606360   -3.07228084044754
C          -7.62716785227642    5.78758643252136   -2.40777735095643
C          -6.80231843304743    4.66949926975916   -2.48358523474885
S          -7.15321646033353    3.11546906756152   -1.78197509512308
C          -8.89184291950312    5.73306653984185   -1.70419545190117
C          -9.17187842503504    5.08087404469324   -0.53704903562324
C         -10.52894005607623    5.18556214023596   -0.16354150407648
C         -11.30237085881750    5.89779176644256   -1.03389955796814
S         -10.33514941407904    6.47136022581499   -2.34900666119246
C         -12.75370612957114    6.19892639897325   -0.96067879933735
Cl        -11.14197892028072    4.46516854468425    1.27479651019450
C          -7.80105257772679    8.21015758261293   -3.14387245926845
C          -7.12351290058911    9.11709865154016   -3.90937817320978
S          -5.64157470104100    8.45286879513411   -4.56362461567373
C          -7.49889752632815   10.45731835941842   -4.19530590902621
C          -6.84980922195215   11.35503287465860   -5.02180354841082
C          -7.51179611758649   12.58121307071325   -5.07963058266031
C          -8.67227442646815   12.61440811441545   -4.28567478187970
S          -8.94848152234742   11.13592976219049   -3.47596948249474
C          -9.27631650459289   13.88864760427573   -4.41321587224626
C          -8.49349022514014   14.66283731434855   -5.29626918885164
C          -7.36639117396642   13.86423646749956   -5.74789088955511
C          -6.40537562780067   14.24001294265580   -6.63956520016123
C          -5.35207068413032   13.38236617883307   -7.02122501260986
N          -4.49373044556259   12.68562852438703   -7.32425994043656
C          -6.41906417996218   15.51964283700192   -7.23417041811614
N          -6.44652088931430   16.56516805269272   -7.70435794911516
C          -9.01653693206100   15.92807599702849   -5.51480916021006
C         -10.19735416308872   16.13722748654640   -4.81297015062727
S         -10.63296948372234   14.73584252019690   -3.83858094942779
C         -11.00436287304942   17.29250318900762   -4.74165266073870
C         -11.05513178484664   18.32885849900651   -5.63280048093241
C         -11.55552286250610   19.66230484090596   -5.31129427498534
C         -12.33738856654120   20.02325600511070   -4.24694993687234
C         -12.84704147203778   19.14534896261205   -3.26711203496498
N         -13.29807156143216   18.49099604318802   -2.43819516756424
C         -12.78338769106627   21.34064178518615   -4.00504641386377
N         -13.18076293858125   22.38561657735524   -3.74587929557598
C         -11.05709937793636   20.55805415377688   -6.34667539310926
C         -10.42263436062320   19.79010411018979   -7.34923481108653
C          -9.82954901905844   20.40097755052712   -8.44146152543355
C          -9.88041780496507   21.78382166184119   -8.53232872161112
C         -10.51521263300013   22.53994213449775   -7.55687011818903
C         -11.10769959078782   21.93898762247866   -6.45613699471001
C         -10.55077474117353   18.38395443014572   -7.00143779821345
C         -10.48333462965823   17.34545038089860   -7.89079290542535
C         -10.11994987926506   17.49279417957602   -9.24684502774187
N          -9.83749671221128   17.54617705598057  -10.35736816713664
C         -10.86417892433957   16.01952018462043   -7.60121528132693
N         -11.19570362085387   14.93261534357835   -7.43670474441906
H           2.86134680995807   -0.77273901619060   -0.07214111633015
H           2.65517648561492    1.60530676706490   -0.65187144801312
H           0.45177506657149    2.67181504932100   -0.83681462244209
H          -1.60729989333543    1.38735847420619   -0.42149129043364
H          -0.78041369074718   -4.79795615343828    0.08599441471353
H          -3.23865219222254   -6.23389507209346    0.27689378918934
H          -5.49156565574673   -3.99518048986994   -2.29169526675722
H          -5.85090998667780   -1.91985133969468   -0.86453418990866
H          -7.03550277259861    0.37792884384496   -1.07309946155697
H          -3.98880205606008    3.15847261821349   -3.54906953693246
H          -3.07077618633005    7.76596928468425   -4.23652247057211
H          -0.28160464249597    5.32227033047096   -7.41265865574202
H          -1.66922320296507    4.61025987427289   -8.24851972704899
H          -0.86654322969337    3.70833808335471   -6.96527800224454
H          -8.43922172452754    4.57468544263545    0.06315377095147
H         -13.17130686747367    5.76516186888767   -0.05569257846295
H         -13.27554497405049    5.78709003597529   -1.82404964981130
H         -12.92332005880485    7.27508485190043   -0.94948743239726
H          -8.72315381662936    8.45286193268852   -2.64832058151986
H          -5.94559449181911   11.10889946001221   -5.54907295228139
H          -8.55051579761564   16.68580339510394   -6.11837720713033
H         -11.59799446485612   17.37613876625171   -3.84117340171638
H          -9.32379069399235   19.82313467654477   -9.19783105081122
H          -9.41703918114904   22.27630156574968   -9.37331429673875
H         -10.54516037528610   23.61474292972159   -7.64994734199515
H         -11.58810231791001   22.54390796701164   -5.70499610935237
