83
 SCF done       -169.081457403345          0.000369201311
C          -3.76378091027194    1.38309141140135   -6.42349503996629
C          -3.24212514925464    1.25809466813440   -7.70285567874993
C          -2.59808384791526    0.09644232777676   -8.10264705929121
C          -2.44869432753205   -0.97133349048403   -7.23010607872656
C          -2.96421840362961   -0.85757706822741   -5.94998235245381
C          -3.63018332748984    0.32065208860622   -5.54376588554700
C          -4.08851691309203    0.15151416882180   -4.16978719784053
C          -4.70775159669514    1.10949787318941   -3.41158888229568
C          -4.96918101421727    2.42286899295051   -3.85765244938783
N          -5.21419583114427    3.50604906771397   -4.14887709001848
C          -5.15403762151147    0.96454763622145   -2.08019933412711
N          -5.55242466988908    0.95412769691026   -1.00298735784499
C          -3.78681895580081   -1.22375272490706   -3.79083410129187
C          -2.93420923977475   -1.77934022234955   -4.82566917322496
C          -2.07418796454312   -2.83895864179900   -4.69141433387605
C          -1.85149718118092   -3.54118713371197   -3.49131282678783
N          -1.60018140153166   -4.13774335973675   -2.54226500109503
C          -1.25909843326191   -3.33258478937482   -5.72889123069157
N          -0.59799132667971   -3.80968485584195   -6.53783112943083
C          -4.30587818027169   -1.84387137108090   -2.68492983863385
C          -4.44478930842226   -3.22621859260891   -2.41509551955971
C          -4.61372800139734   -3.64346353587555   -1.06735538817904
C          -4.72066208963393   -5.02034471452419   -0.69510806903903
N          -4.79521676996607   -5.33912658775671    0.61556508346006
C          -4.77771365243380   -4.38343664597334    1.50686946902544
C          -4.71397105014502   -3.02999352317656    1.12933410932554
N          -4.62858822936533   -2.68249137701544   -0.12300375904105
C          -4.73627765545098   -6.06400272054122   -1.66922917105053
C          -4.68380649203772   -5.63619596464051   -3.01949399846126
C          -4.52536650302546   -4.24871709760855   -3.38418360151881
N          -4.50782960122112   -4.08299811364871   -4.70758211408058
S          -4.66116978020516   -5.51508845544268   -5.42012625067967
N          -4.76282260791221   -6.41565030523233   -4.09873409579594
C          -4.78215515800943   -7.43772520336888   -1.32842879807924
N          -4.82314354142181   -7.87036085349934   -0.02321530075536
C          -4.86377480969712   -9.22098051742005   -0.01635350299083
C          -4.91730677921114  -10.34104791178650    0.79898836434200
C          -4.93843392362012  -11.45311494671729   -0.06207824327507
N          -4.89861545701938  -11.02224579136154   -1.37101252006794
C          -4.84934424713027   -9.66451765143995   -1.37723547707012
C          -4.79515836755491   -8.55506785428413   -2.19686124717650
C          -5.00362860995296  -12.81251625916770    0.31968691128885
C          -5.06843097359656  -13.87286500802710   -0.52500983047188
C          -5.13301802758900  -15.22181934021646   -0.06457979143316
N          -5.11752071955359  -15.48373580189667    1.23822219058197
N          -5.11721810728309  -16.68369794418050    1.72072191665042
C          -5.12752001219249  -17.77382993403306    0.96544789086036
C          -5.21547181646102  -17.63753881650461   -0.44413076134863
C          -5.21199588126822  -16.31088020825089   -0.97968632065646
N          -5.26899224306155  -16.30559402881593   -2.30777293536431
S          -5.30993397615469  -17.83043352701452   -2.82251957926898
N          -5.26691168039226  -18.56634425509019   -1.39429031268363
C          -5.09090039411382  -19.06115405126466    1.60818808229054
C          -4.42682760619266  -19.35142299565707    2.74451768475104
C          -4.75261017086926  -20.59337732817826    3.52396930792299
O          -5.38908467986878  -21.54382484022651    3.13784628587798
C          -4.16786840369787  -20.32878903942806    4.83266900244428
C          -3.44660400129627  -19.13734573994176    4.83862770060910
C          -3.46747744525049  -18.56209783338031    3.51030577962367
C          -2.58746613858374  -17.62752294182860    3.04356485795328
C          -2.44237280509325  -17.26682813769296    1.68835660667221
N          -2.23339675392088  -16.98386364850985    0.59562709938216
C          -1.66037438053516  -16.99089044912913    3.89570231513445
N          -0.90690530739944  -16.46138269782603    4.57960981752764
C          -2.86685792216828  -18.85996076967650    6.09102380197886
C          -3.16967151201766  -19.83586073215111    6.99410595210960
S          -4.14160602236488  -21.10817537821799    6.35399382146082
H          -4.26391047445552    2.29233273178128   -6.13373508413522
H          -3.34383178061635    2.07879253799506   -8.39651665509506
H          -2.20720270423047    0.01962002400113   -9.10586410874216
H          -1.95130186090289   -1.87121641480168   -7.55333133680949
H          -4.71138159637150   -1.21829465203960   -1.90004701078159
H          -4.83281550989606   -4.68672180109254    2.54348593041196
H          -4.74296537702918   -2.23032810321195    1.85581384107708
H          -4.81746565825142   -7.19556384711333    0.73637383095107
H          -4.94012741927307  -10.39023147460416    1.86866057415466
H          -4.88476375021692  -11.62573953839143   -2.17426441513019
H          -4.76866775962470   -8.50029571824990   -3.26468456034465
H          -5.00846968684282  -13.01778813615182    1.38059710086731
H          -5.07524283052831  -13.75892630149301   -1.59965153467273
H          -5.68957596611793  -19.84508002238655    1.15974170287016
H          -2.27186775267869  -17.99490291211958    6.31798799750701
H          -2.86542396170898  -19.88485857775663    8.02149830720096
