80
 SCF done       -144.622282844870          0.000776533425
C          -6.15603863001083    1.64461337717769    4.74353854758260
C          -5.86144599074695    1.50834098922346    6.09201395430423
C          -5.06107105394235    0.47142100612466    6.55051588681348
C          -4.52450228988557   -0.45649738587221    5.67080383811689
C          -4.81250594448086   -0.33058323563744    4.32224111047112
C          -5.63468243137739    0.71922479747750    3.85286589858282
C          -5.78065516756558    0.59658468802576    2.40754892179127
C          -6.40034750622586    1.49578850075333    1.58210361176636
C          -6.99578487707099    2.69623388728308    2.02515449091270
N          -7.49829877049132    3.68595166938653    2.31700536032692
C          -6.49783165932658    1.38086912384774    0.17935145772445
N          -6.60865607891392    1.35393231028320   -0.96331885393486
C          -5.15101922672192   -0.66392126337254    2.02988630829164
C          -4.36938633691324   -1.10948393677810    3.17788030050640
C          -3.23717367355292   -1.87725742001283    3.12707908678593
C          -2.65908483410843   -2.33734632028856    1.92476401256004
N          -2.12982055243284   -2.68143545642047    0.96620549114059
C          -2.46688992458386   -2.21859082158360    4.25707126209857
N          -1.81651444727842   -2.54659320340147    5.14423666360029
C          -5.36822233839653   -1.32487674916313    0.85398261082540
C          -5.16170761724896   -2.69437407644399    0.57075622387549
C          -5.03680713400598   -3.24756093996838   -0.69082506061906
C          -4.87340279779183   -4.63272168103399   -0.70821201235117
C          -4.67422950755449   -5.41845982310739   -1.95640356555708
C          -4.92957526980708   -5.18142819352293    0.56956092683961
S          -5.15671781229616   -3.95217994114002    1.77978259729739
C          -4.82004641757664   -6.53207511465596    0.98378910079900
C          -5.00750314564619   -7.01977541858295    2.26421859779025
C          -4.81678643769585   -8.39629048733899    2.39782288272340
C          -4.95126013407587   -9.10951369821267    3.70001099114719
C          -4.45802593498271   -8.98997515358421    1.19318865231437
S          -4.38022793292407   -7.81990336218361   -0.09345507542932
C          -4.13623531795902  -10.34215499119547    0.90087727723157
C          -4.45572117031487  -11.50272945568343    1.57978968129491
C          -3.95655908821801  -12.66411356329322    0.98942356849420
C          -4.20442048947626  -14.03359501570801    1.51493197911381
C          -3.24616089708171  -12.41002051823990   -0.18511503829090
S          -3.20006013705898  -10.69502603792617   -0.51763271046847
C          -2.52568759462538  -13.36219522864039   -0.93051465174989
C          -1.99494741505016  -13.24137868759126   -2.18739861992890
C          -0.86532043097543  -14.01374447690457   -2.68518280121412
C          -0.35558781596054  -15.17394262186115   -2.16324647947840
C          -0.88058967848607  -15.86320039249452   -1.05107750553206
N          -1.26002049272294  -16.47195870795310   -0.15351960770758
C           0.75558873753398  -15.86122864320326   -2.69538685702689
N           1.65318901961890  -16.46959334512661   -3.07198439509606
C          -0.34948655847323  -13.29709636380366   -3.84567165485830
C          -1.21255611068363  -12.21641573508691   -4.13879955472708
C          -0.93932549471489  -11.35518211246406   -5.18771337536886
C           0.20237830443592  -11.57624549698430   -5.94347743959043
C           1.04707953722072  -12.64107355835651   -5.66396277538108
C           0.78159157355006  -13.51176356809915   -4.61716573246808
C          -2.32932186380483  -12.26081440820061   -3.20970992120172
C          -3.56869628256683  -11.71428208055422   -3.41604604313426
C          -3.86817692338484  -10.80286414037916   -4.44731588091045
N          -4.16169105975645  -10.03740598689871   -5.25087856232212
C          -4.70374174960727  -12.07962582524856   -2.66224552684000
N          -5.65245638196595  -12.40362745784821   -2.10293994024622
H          -6.78207077760652    2.45473372287595    4.40775363751286
H          -6.26524924833787    2.22135315610000    6.79436630481431
H          -4.85207306130127    0.38368138775405    7.60568592437748
H          -3.90842675970032   -1.26229931837585    6.03604309514681
H          -5.81493982308829   -0.77075544160550    0.03824332065183
H          -5.02514560206613   -2.63925030078077   -1.57800112051198
H          -4.74774771327285   -4.76592712469103   -2.82168774237573
H          -5.42065439944726   -6.20732787812000   -2.04546648837603
H          -3.69142837516745   -5.88955382407287   -1.95758916710262
H          -5.27787062265457   -6.37868147172522    3.08547000414716
H          -4.94172115415190   -8.39219306084138    4.51641904042383
H          -4.13561692021730   -9.81606943717823    3.83983244449887
H          -5.89308014314732   -9.65690538376396    3.73927205649071
H          -5.06517646664932  -11.51616700919297    2.46336840466425
H          -4.67688283076181  -13.98428369523510    2.49189168080768
H          -3.27584105849476  -14.59714923999652    1.59883294000050
H          -4.86035984615377  -14.57893161842542    0.83706946113459
H          -2.29073155795567  -14.26357730698821   -0.37991033246988
H          -1.58782669883501  -10.52243519918354   -5.40779705499479
H           0.43551044696401  -10.90887837525492   -6.75900347100865
H           1.92855126695127  -12.79572265432489   -6.26723140657046
H           1.45124900065697  -14.33127817501024   -4.41447318337671
