74
 SCF done       -159.394203175670          0.000841768374
C          -4.78033117114423    2.93350279971306   -2.78875022032890
C          -4.93861290605898    3.01569051610348   -4.16383461065936
C          -5.53928339319520    1.98844100612127   -4.87915264094490
C          -6.00805276835972    0.85131877636220   -4.23855075471190
C          -5.85794110194530    0.75798477195310   -2.86471973022997
C          -5.23616052061070    1.79850283924107   -2.13543130825368
C          -5.19153231351814    1.42788597219348   -0.72852876122352
C          -4.82229423134403    2.22975084840150    0.31408651441368
C          -4.39863014605532    3.56933823194357    0.16791992213329
N          -4.04570144241289    4.65952597139348    0.11539749966163
C          -4.86012041075038    1.85406119692612    1.67539284105024
N          -4.87714956717101    1.61557078810781    2.79767778046610
C          -5.63363618599516    0.03435859426943   -0.65264279499671
C          -6.27732005766203   -0.27443894139403   -1.92977200453872
C          -7.26886838824148   -1.18722781884915   -2.13761722282773
C          -7.86871892044434   -1.94936590089227   -1.11009315143437
N          -8.45164228834619   -2.52195868322352   -0.30454181916828
C          -7.89597485992978   -1.39307145958512   -3.38553395347653
N          -8.42876613275519   -1.60765531057343   -4.37828549619639
C          -5.30118977362234   -0.81462273460261    0.35776463572897
C          -5.36506658867683   -2.22826360377230    0.34168401256351
N          -5.57682275904862   -2.98209231251757   -0.70297133086272
C          -5.52886406350198   -4.26760861049654   -0.38502894991272
C          -5.26394960331558   -4.56575576658481    0.97355914272525
S          -5.05899281194912   -3.11648086299843    1.85582363436194
N          -5.22851041130867   -5.85496932673449    1.29218535689167
C          -5.45778476830526   -6.59154309324321    0.24306805653112
S          -5.74187161964461   -5.71883855819724   -1.27534247328077
C          -5.48970846259041   -8.00423431359324    0.25925654791934
N          -5.71747158742508   -8.73700301793077   -0.79344722349146
C          -5.69014806530070  -10.02781379610417   -0.47947354362320
C          -5.42765746482976  -10.33223541263562    0.87760375134523
S          -5.21126666492959   -8.88464105902003    1.77390630509118
N          -5.40140973662619  -11.62299971949353    1.19182191359484
C          -5.63288081492185  -12.35565780491128    0.13977751521458
S          -5.91072627819965  -11.47531912769760   -1.37492578187498
C          -5.67419517788633  -13.76808545597919    0.15811947613379
N          -5.93692349027448  -14.50402946498511   -0.88349059583970
C          -5.90967741014421  -15.79290990499090   -0.56276180079535
C          -5.61364142714127  -16.09161840053626    0.78926591340861
S          -5.36210929756361  -14.64117073740500    1.67083110195920
N          -5.57585564637244  -17.37688896794342    1.10945076428381
C          -5.82866945308062  -18.12973823292698    0.07312759426242
S          -6.16163647274147  -17.24109453407648   -1.43457462493906
C          -5.91997534385433  -19.54218505057411    0.06685311076281
C          -5.55266298557422  -20.39129116896193    1.06508063531893
C          -6.02126195407071  -21.77336003475436    1.17971521521770
C          -6.48133656661202  -22.57129449021184    0.17056768038616
C          -6.52934540533043  -22.20547244316171   -1.19304057634380
N          -6.58700480240907  -21.97537320023553   -2.31572453872261
C          -6.92873045078624  -23.89842133451472    0.35499981706951
N          -7.30567614381212  -24.97857148331743    0.43885923620911
C          -5.89272843742548  -22.13748799729039    2.58325409740117
C          -5.20330452081072  -21.10674371293701    3.26395426270736
C          -4.96521395374304  -21.19649312249375    4.62559218190292
C          -5.41406022989101  -22.32038016080967    5.30267282483514
C          -6.08167010258213  -23.33810037308334    4.63462233381074
C          -6.32821289899823  -23.25928230255570    3.27239460648522
C          -4.82513178823796  -20.08772081305413    2.29763400673301
C          -3.80541486686903  -19.19284230867997    2.43646888561052
C          -3.09444469449050  -18.99367939414031    3.63972328025775
N          -2.49257420293925  -18.78555232701171    4.59361801271343
C          -3.26092306734602  -18.44331754903029    1.36980091139849
N          -2.72475881577136  -17.87807482462116    0.52760581166986
H          -4.30521968832374    3.73673872858878   -2.24985921176885
H          -4.58394745746042    3.89201949200171   -4.68420749109787
H          -5.64313609799455    2.07325860994458   -5.94993755626334
H          -6.46585539993001    0.05622612812339   -4.80429732671804
H          -4.86240580449958   -0.40221736721483    1.25564911384501
H          -6.41111369883172  -19.95034090996625   -0.80544066505239
H          -4.45488586859955  -20.40841281665271    5.15503531078644
H          -5.24161569221772  -22.40230619535950    6.36479958860777
H          -6.41943091381745  -24.20427458221301    5.18252787418538
H          -6.85415149198102  -24.05513637443187    2.77112908110114
