86
 SCF done       -182.565044075995          0.000783278704
C          -7.45839593942765    1.56080595956747   -5.87472309398711
C          -7.81942271092390    1.29590830140442   -7.18685500882740
C          -8.29835218851558    0.04738731765086   -7.56012859457174
C          -8.43694876929776   -0.97057726719672   -6.62934348358383
C          -8.08326834796487   -0.71758654330869   -5.31346332384544
C          -7.58691114157230    0.55077519032244   -4.93306587777530
C          -7.28148433815770    0.53176497616534   -3.51037338476662
C          -6.92431088240103    1.60517881638694   -2.74698739709044
C          -6.78699310749030    2.91917775211312   -3.24944197003573
N          -6.66167038096999    4.00687467523475   -3.59136299287710
C          -6.68252206482593    1.58583177064448   -1.35416618852342
N          -6.47344805769272    1.66510569086036   -0.22892737691272
C          -7.43908901375324   -0.85852490487384   -3.06677223779675
C          -8.15014577852313   -1.56255944643985   -4.13351321211083
C          -8.91773403321965   -2.68394497350760   -4.00084215870842
C          -9.16674792050531   -3.36452216470159   -2.79010609100750
N          -9.43485402594747   -3.96910667959712   -1.85194305610712
C          -9.60610885249955   -3.29824573495385   -5.06977840825809
N         -10.16562125157326   -3.86321103252094   -5.89683006541939
C          -6.88758993736059   -1.36095122842459   -1.93592699864649
C          -6.70474011860071   -2.73894572930829   -1.56865484791311
N          -6.68570532998255   -2.99896548800326   -0.26968368607540
N          -6.55824822240414   -4.18558814335791    0.21534476999787
C          -6.40986140116217   -5.26958561943699   -0.53834862530715
C          -6.31677550278584   -5.12202027733890   -1.94968443839836
C          -6.46716676385557   -3.80282778526074   -2.48578424640620
N          -6.32929885500283   -3.78519001245961   -3.81010053092559
S          -6.05166860908947   -5.28754620170728   -4.32206138297884
N          -6.08851582623869   -6.02506894415537   -2.89807619497262
C          -6.35550213204249   -6.52357512229200    0.12843201032501
C          -6.12415405146222   -7.77748025259189   -0.41087732709783
C          -6.16797523181575   -8.76349649253302    0.56892818633491
C          -6.44614519404313   -8.24416325018667    1.85313193569906
S          -6.63229229180590   -6.55095519902834    1.85584036954209
C          -6.50206748905544   -9.32567615485522    2.77024506895914
C          -6.25075604046904  -10.52288609965666    2.06583433355045
C          -6.02620793714840  -10.20706679258056    0.66485204986858
C          -5.74153546505320  -11.07921116327454   -0.34447166959700
C          -5.53596728506809  -10.65030214678434   -1.67340985254738
N          -5.36339583961744  -10.31022432884952   -2.75453153515536
C          -5.62967779086020  -12.46978959438001   -0.12931785826920
N          -5.53952895275644  -13.60092247349762    0.03367421678173
C          -6.30350714439130  -11.64858048883433    2.88267834954496
C          -6.59886449996572  -11.30657479089825    4.19000211706721
S          -6.80408166676083   -9.58572183028912    4.42758905111239
C          -6.76141148298102  -12.17230795510567    5.30890061943132
N          -7.10305514368187  -11.61721947885162    6.46401854212330
N          -7.24606623614872  -12.28635510342787    7.56194609446793
C          -7.04899935408163  -13.59393930080436    7.63777552558253
C          -6.74086442239622  -14.31882429224395    6.45687200803450
C          -6.58467295425473  -13.58174063308475    5.24038065504319
N          -6.26753434636577  -14.37027918479706    4.21741333280820
S          -6.16542539381641  -15.88322862683720    4.74761015657988
N          -6.52536354976577  -15.61989990778404    6.28848573894084
C          -7.21240042367370  -14.25799409496707    8.90439785669557
C          -6.91865940684292  -13.71778493038289   10.10880132708477
C          -7.40305843256261  -14.21758650868783   11.39807430140952
C          -7.84641335564591  -15.47923542172215   11.67317145040878
C          -7.86667386426676  -16.54997634506242   10.75149269813193
N          -7.90153352870861  -17.46641666993581   10.06207340615990
C          -8.30656479695755  -15.89458839369688   12.94260624770826
N          -8.69209765671276  -16.29161091623386   13.94742109825363
C          -7.31824258792722  -13.10254599577506   12.32847503718757
C          -6.63564651895648  -12.03170445165784   11.70418148143420
C          -6.44025064379033  -10.83393562699862   12.37310401326809
C          -6.92376282386848  -10.71241628554733   13.66666554199167
C          -7.58534488016432  -11.76559676812377   14.28463484585541
C          -7.79040583862231  -12.96790139478318   13.62564405972711
C          -6.22331475767604  -12.45467026943725   10.37703882480498
C          -5.20532470504970  -11.91787318266369    9.64493422191064
C          -4.50595025617122  -10.74773611677833   10.01307990495464
N          -3.90569977943134   -9.80286340860968   10.26307372887218
C          -4.66537136414006  -12.50383143106959    8.47951595647214
N          -4.15374203468726  -12.95976788458929    7.55868858444124
H          -7.08157641507720    2.53347646326913   -5.60485814329387
H          -7.72189286766728    2.07393394521553   -7.92831532802115
H          -8.56631504688152   -0.13622183046855   -8.58926867621370
H          -8.80166002653885   -1.93813211488847   -6.93306140595903
H          -6.49031190395492   -0.67402543306621   -1.20072425387149
H          -5.94048598106199   -7.92969522231792   -1.45920115000874
H          -6.14629340931325  -12.66682480508801    2.57530881081836
H          -7.65618308634624  -15.24197000698804    8.84512395133361
H          -5.93741080759641  -10.00716883348869   11.89833544902155
H          -6.78506997188958   -9.78386526308207   14.19879729055401
H          -7.95170135183616  -11.64740275672892   15.29285062402944
H          -8.31351020986456  -13.77193965552379   14.11690622962562
