100
 SCF done       -213.730589889958          0.000778916571
C          -8.29103638572607    2.61282805300732    4.13094825152193
C          -9.03588299770397    2.76149062555163    5.29115404355661
C          -9.27634746699483    1.68333786204611    6.13122501112017
C          -8.77117453955783    0.42513555176928    5.83940302658933
C          -8.02353035115821    0.26527186808288    4.68475418771678
C          -7.78542105212310    1.35922167363849    3.82253743360987
C          -7.00189300159369    0.90014232544792    2.68429696389513
C          -6.45798490155384    1.69616125884045    1.71388738924242
C          -6.58312526994652    3.10282705615825    1.68468244410997
N          -6.64190008679571    4.24527714001117    1.59538735277211
C          -5.66352100271442    1.25955095846467    0.63156754979963
N          -5.00426564041645    0.98819628921970   -0.26838599688477
C          -6.91564002133510   -0.55709477599382    2.79365353850372
C          -7.35782929595964   -0.90674605530040    4.13770372854240
C          -6.99920574934452   -2.01796073595736    4.85126131044718
C          -6.14000948779785   -3.02379368917347    4.36812025701990
N          -5.43154432131631   -3.85392480330030    4.01191716052159
C          -7.38079121688614   -2.25187557113272    6.18977339349779
N          -7.66077334986150   -2.49814040131641    7.27465122243803
C          -6.57308668868567   -1.36624743228358    1.74800801314256
C          -6.79713533753478   -2.74944742000980    1.55604490054974
C          -7.74122734309495   -3.61030851637117    2.10152989833869
F          -8.65927857467926   -3.21424840046546    2.98971106978397
C          -7.69559051102297   -4.90125019735568    1.57835685674756
C          -6.69317007152485   -5.04677012533784    0.60825371869141
S          -5.84192256507845   -3.57884091581578    0.33772753364370
C          -6.65682319921192   -6.34387507502686    0.09039784828446
C          -7.62953671215756   -7.16759570443869    0.66741705285395
S          -8.59912156674429   -6.36082972614821    1.86333958688793
C          -7.61740845932953   -8.46013193320991    0.12790228657566
F          -8.45936310824592   -9.42544385033997    0.51074802246376
C          -6.65901563201720   -8.64243901550928   -0.85010156956754
S          -5.73238001369820   -7.17875158661890   -1.10454098448906
C          -6.40752776658065   -9.80103620363650   -1.63801785101336
C          -5.45682239985739   -9.92465411143423   -2.61610905175160
C          -5.49451281352599  -11.17492853710789   -3.26904913361189
C          -6.50260897743106  -12.00875141983680   -2.75321509226090
S          -7.38152079600556  -11.24816713463116   -1.46288871950559
C          -6.77341475960281  -13.28465458112928   -3.23687376438400
O          -7.77776333542235  -13.91814843316895   -2.58322675858255
C          -8.03725166236790  -15.29353749557943   -2.73399414107823
C          -6.00394650295311  -13.71300659651767   -4.33541523397962
C          -4.96142795090952  -12.86960342427786   -4.84705019477601
C          -4.67284174552027  -11.61816880431672   -4.33029017344700
O          -3.71979727921645  -10.73081722097653   -4.70328966886145
C          -2.76568528710475  -11.05339722721497   -5.68790189166481
S          -4.18110497962693  -13.62545653166765   -6.22695922890960
C          -5.25149363341143  -14.99892522522384   -6.14011460601270
C          -6.12932680389149  -14.90199027241940   -5.09819893762597
C          -5.16663874713287  -16.02509918842164   -7.12453709438497
C          -5.94709942640028  -17.15930774028853   -7.25261199601034
F          -6.92005392082117  -17.48228457445133   -6.38845573159196
C          -5.63496727102335  -17.92995563345994   -8.37778736277502
C          -4.58933218950237  -17.37628728264528   -9.12544527706282
S          -4.00085379277005  -15.91463051611546   -8.42349697069168
C          -4.30225821997627  -18.13143830665869  -10.26528125948357
C          -5.13609069897498  -19.25391731181584  -10.37018654101293
S          -6.27669683805034  -19.39343759898257   -9.06342910889250
C          -4.86035890766293  -20.01336436818355  -11.50573132276384
F          -5.57417620377054  -21.08908825954030  -11.85494765702903
C          -3.82921096876052  -19.50419185341889  -12.28496143617486
S          -3.20717730687454  -18.01848407168896  -11.58476904908352
C          -3.30546312749212  -19.91865482966261  -13.53175127116684
C          -3.35607532829833  -21.13692566573809  -14.14677993886020
C          -3.14703718351168  -21.31710932872717  -15.58466561702368
C          -2.54739288019778  -20.44780403387395  -16.45394835633462
C          -1.96989574862891  -19.20460043519912  -16.11600949083892
N          -1.47554613002384  -18.18662959246000  -15.92170708028418
C          -2.37949306864387  -20.70131383615001  -17.83336677420082
N          -2.20765402429832  -20.84007386229904  -18.95934440710393
C          -3.69855006576240  -22.62055148143091  -15.92686567003840
C          -4.06745419963140  -23.28743079547622  -14.73683490556419
C          -4.64443721217944  -24.54551298675635  -14.78120613577611
C          -4.84730162052004  -25.13651800205266  -16.01937796985049
C          -4.47647196168680  -24.48822108077863  -17.18908702939919
C          -3.90038255308900  -23.22719545278103  -17.15710859295558
C          -3.71711911554688  -22.44153610733588  -13.60645376499312
C          -3.52145505327488  -22.87572120371838  -12.32360888306228
C          -3.80105558052955  -24.18752552899148  -11.88439477149618
N          -4.01324967999898  -25.23480937028077  -11.46722189837076
C          -2.94440646737146  -22.09303103164821  -11.30498454170886
N          -2.46496923206613  -21.48717197353960  -10.45583893480999
H          -8.12198110155881    3.45969695504266    3.48667671628133
H          -9.43792362711302    3.73192074415804    5.53886899771269
H          -9.86673071044744    1.82256278269809    7.02383374487978
H          -8.97343674766994   -0.40739491356926    6.49323561434389
H          -6.10858333428695   -0.89067243578627    0.89375062727377
H          -4.76097301972857   -9.14690892195354   -2.87288212474716
H          -8.68657126565348  -15.55209440727039   -1.89756566660898
H          -7.12214316316384  -15.88798471024980   -2.67592650172420
H          -8.56775557042424  -15.50320709133555   -3.66739186970259
H          -2.08777873494465  -10.20118886569303   -5.71553916662213
H          -3.22299485793636  -11.17883143250471   -6.67267201591799
H          -2.20189495383686  -11.95253652731165   -5.42711032353578
H          -6.86097400218071  -15.66284414646980   -4.91714806832322
H          -2.84930281506773  -19.10963622524117  -14.08774144632218
H          -4.94599079134999  -25.05344496332500  -13.87971922620297
H          -5.30246541461545  -26.11366493786849  -16.07114431398091
H          -4.64244346948683  -24.96797176797617  -18.14145699869969
H          -3.62684908133571  -22.73595733904628  -18.07619919421291
