156
 SCF done       -257.219363522272          0.000745960893
C         -10.13431571601088   -9.84329721078426    0.75366912219068
C         -11.18918067923844   -9.07514012833110    0.28419227746359
C         -11.13326166386480   -8.46110683416768   -0.95888408311892
C         -10.02954884246069   -8.62525292375220   -1.78077296007990
C          -8.99096447624665   -9.42678054526361   -1.34074822588216
C          -9.02309521207907  -10.01644128584022   -0.05740265468183
C          -7.77710297130774  -10.73614292353919    0.16134985612556
C          -7.44882600770371  -11.45453823245655    1.27936507566359
C          -8.26117191164164  -11.55262263216312    2.42846373320780
N          -8.85394849198125  -11.66011938066691    3.40601389502448
C          -6.27138294102937  -12.21230193610793    1.44906391073112
N          -5.35261604139918  -12.86895402955227    1.65819495369106
C          -6.93025855979923  -10.48551285406015   -1.00245297656911
C          -7.76486144105451   -9.82886356053922   -2.00798895382798
C          -7.58127559763188   -9.82731079559943   -3.36193098800756
C          -6.51998430007557  -10.42889841842768   -4.07185744790757
N          -5.75662510854379  -10.93347759536042   -4.76519520919612
C          -8.52367667187936   -9.33680047932633   -4.29128712644921
N          -9.23497995361598   -8.99709934305507   -5.12540906204750
C          -5.59597956821878  -10.73252522151026   -1.07804986657651
C          -4.69250705191791  -10.15164273477734   -2.03667685267789
C          -4.78284576552963   -8.80052303573949   -2.39890270108041
C          -3.92462022323946   -8.25940810995424   -3.32554840292531
C          -2.99444296209717   -9.06274971535446   -3.99603743519746
C          -2.87029245018664  -10.39812742959681   -3.58782862800276
C          -3.66896707285743  -10.92083874835598   -2.59962551202833
C          -2.13592167188113   -8.56623929462745   -5.06511868702789
C          -0.84953155908273   -9.28511252702338   -5.22048360514730
C           0.02285120338621   -9.39567510287068   -4.14048292625777
C           1.23234002666818  -10.04997457539718   -4.28027871978324
C           1.58017625575939  -10.61515063921402   -5.49595922018727
C           0.70990656189882  -10.52664214798467   -6.56958597440296
C          -0.49639357376543   -9.86524256182569   -6.43499402801490
C          -2.41846188537111   -7.53788872111904   -5.90574321160957
C          -1.39620461839194   -7.07820439307196   -6.87211473111047
C          -0.11127894921254   -6.73152248488514   -6.46309310888994
C           0.82174177189928   -6.29388140254678   -7.38389138189307
C           0.48759912108943   -6.19886101129244   -8.72463427445772
C          -0.79203529886684   -6.52899697659245   -9.13891123350898
C          -1.73062059136115   -6.95626267182854   -8.21892859589176
C          -3.66391220850990   -6.77034013202736   -5.98680167073109
C          -3.56462301287350   -5.38561750128994   -6.17189409783421
C          -4.68632165307079   -4.60730745633456   -6.30616844916289
C          -5.97531932800404   -5.16531116416835   -6.25741869288048
C          -6.07002290586907   -6.55646308807857   -6.08767592331828
C          -4.94188271166736   -7.33899560636508   -5.96625033107558
C          -7.08424666115708   -4.27369382291943   -6.41965426643357
C          -8.41790744566899   -4.45601239725126   -6.20802918110769
C          -9.40821255275727   -3.45451699919008   -6.44233748807118
C         -10.67593335683899   -3.82553624534912   -6.13635529984878
C         -10.78001265141651   -5.14517402550944   -5.63322998116002
S          -9.19521971101517   -5.89646732910856   -5.56868537552299
C         -11.90685199069964   -5.82731977213626   -5.23782850385286
C         -13.25949407831497   -5.40565537368326   -5.22354592776533
C         -14.12459112019797   -6.35097054555373   -4.77550694053515
C         -13.52162291361724   -7.59088241103970   -4.40508908397956
S         -11.78732456157517   -7.47027374214260   -4.65399338396896
C         -14.19861389267697   -8.68735975347042   -3.95597923611709
C         -13.70663816957927   -9.98086059487559   -3.58793963317105
C         -14.63315278429194  -10.97989241976406   -3.23798484400147
C         -14.22887800123634  -12.25486516273334   -2.92320934225725
C         -12.87185493346749  -12.59054132425873   -2.90867476491497
C         -11.94199782607357  -11.59067678229832   -3.19824861870524
C         -12.34761991767537  -10.32751055258236   -3.55606591866128
C         -12.41276934904283  -13.94658405495520   -2.60333024387246
C         -11.27750770229926  -14.03889050807041   -1.67154463039427
C         -10.16853161365998  -14.82837699750920   -1.96985436176205
C          -9.10689320625177  -14.90334485274908   -1.08878118999811
C          -9.14482469534477  -14.20836483426485    0.10930233016279
C         -10.23849458884102  -13.41263973431440    0.40860257828250
C         -11.28849907274939  -13.31051274062207   -0.48407260036215
C         -12.98664710502008  -15.04278143941791   -3.15792955037392
C         -12.66322098658008  -16.41222496742019   -2.72626277822765
C         -12.57574987323348  -16.74305656057759   -1.37525687030569
C         -12.29226617774778  -18.03936796079778   -0.99000453039433
C         -12.09478684736988  -19.02404737947553   -1.94444226953188
C         -12.18932408761193  -18.70685704566259   -3.28961284251347
C         -12.47513542603168  -17.41243771673913   -3.68045605369633
C         -13.94164877097691  -14.95705903027649   -4.26461984020319
C         -13.72844422005008  -14.09474895129564   -5.34335918464440
C         -14.57406586464214  -14.10181330652950   -6.42686611068847
C         -15.63680008732857  -15.01075445322081   -6.49803257965383
C         -15.88269685966104  -15.83704108873901   -5.39331195862019
C         -15.05192224210219  -15.80720063764966   -4.29938132607001
C         -16.45058304304504  -15.04987507424662   -7.68364218559230
C         -17.04347600075882  -16.13992930743899   -8.23676114027088
C         -18.11974137452882  -16.08825978899642   -9.22565273571432
C         -18.46717276371134  -15.02719833899897  -10.01621145991877
C         -17.80736073992070  -13.77996795931894  -10.04987006097442
N         -17.31914137075014  -12.74480460747563  -10.14230069122006
C         -19.52270365234159  -15.05091245638665  -10.95301008772612
N         -20.36703782545600  -14.99966000612033  -11.72880422016111
C         -18.75992729373333  -17.39544727682986   -9.21656950794542
C         -18.01244852250754  -18.26683602602884   -8.39143591862058
C         -18.42221348807548  -19.57577718455986   -8.19466600912288
C         -19.57630985895532  -20.01110857505351   -8.82748718959117
C         -20.30581888309607  -19.16009984205196   -9.64609973488679
C         -19.90803233679279  -17.84759621439726   -9.84901545477099
C         -16.84808633221822  -17.54953902408806   -7.89643291390421
C         -15.69775062183924  -18.13030230379522   -7.43827080078619
C         -15.55872477795817  -19.51394512481408   -7.19831965107826
N         -15.39126527255630  -20.62536788631677   -6.96619851308731
C         -14.47240483897221  -17.46234835697868   -7.22801326678174
N         -13.41834767603031  -17.02428499333700   -7.10588581145065
H         -10.18624907564031  -10.28442924221364    1.73530152027453
H         -12.06115417508462   -8.94136829194157    0.90629368923736
H         -11.95576380909856   -7.84753562913742   -1.29320056311569
H          -9.97761694290649   -8.12336184092843   -2.73323301030835
H          -5.14385449859164  -11.38074497980305   -0.33954949621798
H          -5.51129088678284   -8.16847199777371   -1.90920305415138
H          -3.97510400163703   -7.20332750822634   -3.54064287170863
H          -2.14440122555243  -11.03387872744507   -4.07079491940377
H          -3.56470276609568  -11.95489504401579   -2.30749693808023
H          -0.24884912752241   -8.95346149596828   -3.19179065442732
H           1.90532556790044  -10.12031898135997   -3.43818016685883
H           2.52479445708801  -11.12702959768763   -5.60442661819613
H           0.97187556279495  -10.97527525674603   -7.51643458029181
H          -1.17769455354659   -9.80407738470922   -7.27061301326587
H           0.15022193721024   -6.79350130411101   -5.41708972628921
H           1.81439537474479   -6.02536614139841   -7.05342014876389
H           1.22049561856432   -5.86349182227463   -9.44332312373380
H          -1.06008897315273   -6.45123221694674  -10.18241800973601
H          -2.72924515431691   -7.21497819782929   -8.54167770705917
H          -2.58720768848478   -4.92546587922077   -6.19816890265925
H          -4.58025473419164   -3.54062942586241   -6.44484765973801
H          -7.03896746909270   -7.03209430219476   -6.08599582662805
H          -5.04304635782660   -8.41077594635999   -5.86947452152586
H          -6.81223194929037   -3.27679913727546   -6.74928153606306
H          -9.13553043234384   -2.49177579002875   -6.83823748349033
H         -11.54019015742064   -3.19651623624011   -6.25533551653280
H         -13.55030001214768   -4.42226398153577   -5.54794806655225
H         -15.18910429240215   -6.21105701464681   -4.70125794018929
H         -15.27405543217751   -8.56883984558034   -3.88746605114697
H         -15.68703936741445  -10.73948774920583   -3.23209559641885
H         -14.96188574594454  -13.00735493888389   -2.66995972944412
H         -10.88754011347551  -11.82983699232656   -3.18390661794962
H         -11.59485187234664   -9.61031020690656   -3.82930170397311
H         -10.14184367214614  -15.37628538994417   -2.90009440497729
H          -8.24955729939817  -15.51348111913388   -1.33159398900075
H          -8.32596784464072  -14.29376322790692    0.80936450133135
H         -10.28024593818311  -12.88060572996238    1.34710533585573
H         -12.13989503902325  -12.68589390653095   -0.25142495740441
H         -12.74535410788917  -15.98216483380497   -0.62750947508327
H         -12.22931660505092  -18.28351404327350    0.06035328501997
H         -11.87241573831459  -20.03607813644721   -1.64046306757062
H         -12.04197197591277  -19.47048879978895   -4.03896439965075
H         -12.54115931706217  -17.16777454833984   -4.73152487887566
H         -12.87352978491989  -13.43663905792503   -5.33760646122458
H         -14.38390228016869  -13.44876801809650   -7.26539092456204
H         -16.74780199147247  -16.48580580763291   -5.39387019305511
H         -15.25163668476091  -16.45005093390449   -3.45407233347744
H         -16.62404544879116  -14.08912844369020   -8.15013363423058
H         -17.86825624745534  -20.24386054963452   -7.55541050462341
H         -19.91047777318007  -21.02649285601735   -8.67883800389498
H         -21.19966940425302  -19.52170713222096  -10.13091310117030
H         -20.49010581250930  -17.19902492785057  -10.48272196926984
