82
 SCF done       -172.941185799600          0.005286129437
C           3.40026170604653  -10.15088270303100    2.96516300831600
C           3.54245533032814  -11.43045907821187    3.47939796715109
C           2.50743818887248  -12.34987108156950    3.39906704300871
C           1.29725312996083  -12.01422125545034    2.81171937595198
C           1.14047700818143  -10.74036616126758    2.28971881376929
C           2.19942654333883   -9.80636796122804    2.36540493048107
C           1.77529105717131   -8.56592346538069    1.73386716780840
C           2.57704793974993   -7.49379705294546    1.45603873371579
C           3.94704511814633   -7.42177631957751    1.79478699601065
N           5.05810508348894   -7.28828219043061    2.04619217679729
C           2.19802308708862   -6.32355483154624    0.75792632687487
N           1.99785258861156   -5.34796941979329    0.18624087129939
C           0.35127945787637   -8.71386835423474    1.42726270089551
C           0.02552221895070  -10.12414361171884    1.57948004452726
C          -0.99533856619455  -10.80141392664707    0.96681141344437
C          -1.87783429625033  -10.25074089132325    0.01488313616554
N          -2.55863207685173   -9.92194056424617   -0.84956342410249
C          -1.15976032617205  -12.19611050330152    1.07248733436921
N          -1.30799524945083  -13.33448748131164    1.11747836182056
C          -0.44810996336752   -7.63611577988824    1.18852933760612
C          -1.86102756644479   -7.47310675371496    1.15591820602213
N          -2.72787807530250   -8.40291561812336    1.51371828723417
N          -4.01214043645511   -8.20316719592341    1.54621017191911
C          -4.61227027848797   -7.01707885075304    1.21376753344654
C          -3.76006309268585   -5.96956410607784    0.76771063720090
C          -2.35219075527693   -6.18680961309784    0.75494194529601
N          -1.68034350634189   -5.12562137570447    0.34595294089137
S          -2.73548711241330   -3.95165560303967   -0.00743703060612
N          -4.08955925819067   -4.75098491274860    0.36112251437693
C          -6.00874422889012   -6.91579840218960    1.27931761134051
C          -7.05791758497579   -6.06325636061926    0.79040379588903
N          -8.24353345861327   -6.66353851467068    0.77242833323161
C          -8.08025309615301   -7.90870946138349    1.27668009000875
C          -6.71317491046148   -8.05827735419276    1.67481796298806
C          -6.35688229226082   -9.39170077184693    1.82728103538646
S          -4.81547284102375  -10.03796294305802    1.74315053790877
C          -7.56151641099169  -10.09518790931144    1.68073541924614
C          -8.63260252384694   -9.24637278813165    1.28597395945380
N          -9.63690034833113  -10.02289911480421    0.79798033364003
C          -9.21929827244141  -11.27906028514647    0.82706409930270
C          -7.86672853844154  -11.40645952463406    1.31290890324108
C          -6.80781272674467  -12.32754668563682    1.32708346113752
N          -5.56853547408037  -11.88494043257803    1.69410292712731
N          -4.55678654681575  -12.67378387326399    1.92530838768950
C          -4.61373332704434  -13.97648096061881    1.76336428163156
C          -5.78766162592987  -14.55721798437118    1.19384952380631
C          -6.91561072000389  -13.70398115658178    0.99073028782834
N          -7.96635905290874  -14.36241500617145    0.52217916409800
S          -7.56444315323419  -15.91399194375717    0.35214485742540
N          -6.04020958237148  -15.81465222787887    0.87367142642887
C          -3.51862860489980  -14.82120586395096    2.15000170595723
C          -2.70175751838902  -14.64547411873077    3.21584404096681
C          -1.43544346202641  -15.35171726703952    3.41491398991915
C          -1.00407201281375  -16.46651499455114    2.75356318716903
C          -1.75440792251856  -17.21045759774436    1.81316770253850
N          -2.29741209099771  -17.88835510575996    1.06257133195973
C           0.26783022877464  -17.05213334452756    2.94080508348768
N           1.29006391363796  -17.56451077608457    3.03879150831989
C          -0.69988666205748  -14.61239677870880    4.43102972316150
C          -1.50126673945206  -13.54331152752150    4.89773239872547
C          -1.01479335135250  -12.66204326811898    5.85177021820238
C           0.25513992853114  -12.87291169316916    6.36577618481032
C           1.02439048545761  -13.94852188277182    5.94374323497109
C           0.56135424766590  -14.82066993718657    4.96908219819639
C          -2.81158655674806  -13.64422208311993    4.27782530843623
C          -3.96356879534260  -13.10482553884931    4.77816497394410
C          -4.00325838062390  -12.15205173356325    5.81849328412479
N          -4.10392620333992  -11.35611364780499    6.63951556978284
C          -5.26482796990797  -13.49064653450272    4.39412979033127
N          -6.34874613952748  -13.79445202665203    4.16517611634247
H           4.21241394117835   -9.44631503477915    3.03740388044656
H           4.47453157664071  -11.71270671956505    3.94471470870667
H           2.64421082996883  -13.34447512556310    3.79502274009930
H           0.49983461188498  -12.73703720801844    2.77088538694422
H           0.05149827529048   -6.68487055731638    1.05292498680905
H          -6.95460049299588   -5.05631796253222    0.43196482468967
H          -9.85523761302437  -12.07432440935587    0.48759375230860
H          -3.36546944944306  -15.66615133315728    1.49421926195443
H          -1.60624467331091  -11.82796762781669    6.19380789189454
H           0.64309034288182  -12.19868620925912    7.11460146182684
H           1.99954580764391  -14.10817479598704    6.37868147825701
H           1.17475926632333  -15.64631692870012    4.64663815704912
