92
 SCF done       -194.375330030486          0.000974615474
C          -7.45046680353311   -6.79801044504105   11.50596361499062
C          -6.38220167187795   -7.22132863812247   12.28149798799508
C          -5.14773108506053   -7.50207524687218   11.71033345523567
C          -4.94270982672178   -7.35976048952479   10.34663955490457
C          -6.00138411371305   -6.93451372063788    9.56012193381475
C          -7.26263801587193   -6.65760023425861   10.13911045602455
C          -8.18734601928715   -6.25839147575620    9.08989927373509
C          -9.43859054189739   -5.73889129202360    9.25442813721340
C         -10.04200524301767   -5.52100802002426   10.51298305311036
N         -10.58258364024288   -5.32063315324866   11.50466765226789
C         -10.27403753792925   -5.29858944989624    8.20309123614400
N         -10.99695090506889   -4.90736626005976    7.40286941473246
C          -7.50174596361982   -6.50955573292688    7.81910950103698
C          -6.07787493330582   -6.67431595381855    8.13274493333204
C          -5.02644638812406   -6.39182160840454    7.31172988702565
C          -5.15116275514364   -5.90427950150079    5.99258700834458
N          -5.18708006347053   -5.45795032837497    4.93566528728598
C          -3.67487233776958   -6.47098632224800    7.71288305752775
N          -2.56167177428586   -6.51143739951008    7.98647080085654
C          -8.11755980821691   -6.71531249387645    6.63418039002678
C          -7.49495867915512   -7.28393705606132    5.46552405647379
N          -6.55883951339097   -8.20640866025866    5.61223266584143
N          -5.94160641236536   -8.75703274271507    4.61458049735580
C          -6.21275404434787   -8.46895244783554    3.35466412882841
C          -7.19529890824393   -7.48835925115297    3.05855358610517
C          -7.87611362817306   -6.88263202111573    4.15986012657519
N          -8.71566110462051   -5.92885926487431    3.76696425094368
S          -8.63668642197213   -5.80702714146528    2.17067735510119
N          -7.54109680530726   -6.94653915006699    1.89333581784200
C          -5.42825984407050   -9.06666043403589    2.30745579101650
S          -3.72516424610869   -9.05664385497151    2.47996518587144
C          -3.46248883328522   -9.59144853561642    0.85409901638912
C          -4.69050657922347   -9.75135766155364    0.18380962667721
C          -5.81781104712707   -9.52285310803808    1.04390440493847
C          -7.12006415307564   -9.83311578221582    0.56767891643001
C          -8.33605916313155   -9.99747576723212    1.43130468687184
F          -8.08631246448864  -10.19168165426935    2.73351116257628
F          -9.20705061358867   -8.96716423594338    1.36547175769364
F          -9.04863338467337  -11.07285315752418    1.04299859559159
C          -7.28549719532875  -10.12682155613836   -0.76358441929959
C          -6.21047640831400  -10.13911739903404   -1.65397993364126
C          -4.91529643100504   -9.98203530195572   -1.20761489626755
O          -3.83646914937941  -10.00338124853811   -2.00495787694965
C          -3.99213750538212  -10.24288020424855   -3.38797369098082
C          -2.10131582122565   -9.80212766917002    0.50266654029044
C          -1.60702960903979  -10.60412188967560   -0.46997209781670
C          -0.21708591877354  -10.74369290896048   -0.75809054405480
N           0.08724649766163  -11.52405450392882   -1.79477436801130
N           1.28933866874955  -11.76532280745901   -2.17971970355424
C           2.36832313251724  -11.24729033030157   -1.60357280694518
C           2.18589389536340  -10.32794568663234   -0.53168574350990
C           0.84849321958053  -10.09040258569057   -0.07223992006363
N           0.81859704511084   -9.21340263658707    0.92784498770960
S           2.31488993674017   -8.72423895751100    1.24552757874012
N           3.08124085712741   -9.59963131532808    0.13217082810396
C           3.62370959908268  -11.60893796813011   -2.19639326086679
C           4.86348593237675  -11.61584265919657   -1.64538655948282
C           6.10360399792820  -11.64577515788355   -2.42860250947271
C           6.25845993511568  -12.07873523457762   -3.71397045621099
C           5.24331326040679  -12.63407310939083   -4.52575825254359
N           4.48800879156779  -13.10502994514110   -5.24949188447829
C           7.49211544061047  -12.07365048240234   -4.40298155069388
N           8.46067012168033  -12.09700096259662   -5.01731047793295
C           7.15355105237402  -11.13218460301306   -1.56081184712576
C           6.63552191599672  -10.98470440508440   -0.25342766934073
C           7.43024340555065  -10.49269816674870    0.76913527118936
C           8.74262005559074  -10.15035307924565    0.48097756192276
C           9.25508406683933  -10.30059309072018   -0.80040030605302
C           8.46985985528006  -10.79146832911326   -1.83248575670247
C           5.25460530146655  -11.43704740283191   -0.24962401539350
C           4.54311228226060  -11.82771406870133    0.84852130188204
C           4.99092907379954  -11.66199000970641    2.17640269103839
N           5.28373594667147  -11.52244072921955    3.27709066160870
C           3.29434090208483  -12.48298507777229    0.80405900231234
N           2.28919244329597  -13.03521173996109    0.84341298219398
H          -8.40478703609268   -6.59335509699693   11.96315748903630
H          -6.51678206656310   -7.33911619339044   13.34579294099698
H          -4.33532593944824   -7.83917759868416   12.33562782261030
H          -3.98422093292116   -7.59108605654811    9.91117448173310
H          -9.17013686764985   -6.49440219149037    6.52501370319913
H          -8.27092672310290  -10.35705280572604   -1.13849437200846
H          -6.41539606325706  -10.31237621407146   -2.69664181468726
H          -2.98162686373667  -10.24795708910657   -3.79286927264153
H          -4.57518885025573   -9.45175584916686   -3.86726535818826
H          -4.46170921993072  -11.21240450972331   -3.57515473028667
H          -1.39017009233370   -9.30488864160992    1.15209151689311
H          -2.24645473747310  -11.19634519827420   -1.10228694046759
H           3.52667687743075  -11.86350686943126   -3.24371661261715
H           7.04013411693697  -10.36343370052989    1.76552177699958
H           9.37231012849162   -9.75935004803399    1.26542504887264
H          10.27980807130040  -10.02778042484231   -1.00098307208395
H           8.88219287905218  -10.89435859690230   -2.82269973164322
