96
 SCF done       -178.917736832658          0.000778062201
C          -7.97478263361027    2.66864262747238   -2.54815274847302
C          -7.53330592074910    3.88469509325731   -2.04617874380134
C          -6.48588585883801    3.94681242133878   -1.13966654616712
C          -5.84217233631377    2.79344751582777   -0.71463097507043
C          -6.27447741313894    1.57538679618274   -1.20903174383200
C          -7.34804393977945    1.50798944203661   -2.12452068925566
C          -7.60110891017148    0.10853777478160   -2.44893172271792
C          -8.52472681795480   -0.34496396458023   -3.35397691643528
C          -9.35232129968036    0.49551441954954   -4.12912294347943
N         -10.05731354093343    1.11233331393456   -4.79251692980379
C          -8.77985141783773   -1.69471065184482   -3.67472637725640
N          -9.05369701116499   -2.76502621230931   -3.98905516591006
C          -6.71511100574215   -0.68544601601071   -1.60781168548480
C          -5.78627826703731    0.22430802751639   -0.97682309991703
C          -4.55133604913463   -0.09826379167898   -0.46485813755784
C          -3.96808133937162   -1.37662394936169   -0.55718420401881
N          -3.43591574167108   -2.39155839273307   -0.63383324941935
C          -3.67143216957616    0.83053187202464    0.12505214274957
N          -2.92326943997730    1.52515229829893    0.65026998362363
C          -6.83448578160242   -2.04719746096374   -1.43282354802005
C          -6.39797310808182   -2.84166763649098   -0.36611094748552
C          -6.05678609954902   -2.56281858299604    0.95431941730745
S          -6.00190559732519   -1.08683048011423    1.84744412691415
C          -5.55073691330092   -1.95794336373518    3.30015388004097
C          -5.30343407351822   -1.19209836126061    4.54544601340352
C          -5.45989478278131   -3.29296300274401    3.09969702790811
C          -5.75827144351869   -3.68881695928153    1.76372122349389
C          -5.84669159225928   -4.88978985504494    1.04587159415354
S          -6.35296941376648   -4.57696205773084   -0.59063094754539
C          -5.60101456286185   -6.23349881618663    1.43402773837037
C          -5.21649432660852   -6.61289942451705    2.70388828938668
C          -4.98769820732045   -7.91919471978473    3.11531329395647
C          -5.00179173896399   -9.02883034917615    2.15636674335831
C          -5.36156315074449   -8.89612170511042    0.85951842472136
S          -5.83960349615424   -7.41347447499335    0.14915791399382
C          -4.57511276916228  -10.17229632947373    2.88549992281565
C          -4.32552093617729   -9.81629117396543    4.21252504310469
C          -3.91212176699937  -10.91833551693759    4.99234000059112
C          -3.85426059987972  -12.05570308385516    4.25137124196614
S          -4.30149723973579  -11.84129808435766    2.59186122632466
C          -4.61066231555066   -8.41717880079197    4.38801855381255
C          -4.54385474360229   -7.76837266296413    5.63500056384789
C          -5.12884881879011   -6.58288238771193    5.97586816515360
C          -5.02635779888650   -5.98559670911115    7.24156317212277
C          -5.63792581091423   -4.81498259749586    7.66830498816065
S          -6.68286291140243   -3.68003721918652    6.88025053139280
C          -6.74909488689019   -2.70971974548132    8.34323078607042
C          -7.54869897414771   -1.46107705282946    8.34440018395728
C          -6.02065912399978   -3.23648381370014    9.35965799051727
C          -5.37004685661768   -4.44293108353573    8.99985387419481
C          -4.54121464494639   -5.35941666796133    9.66535621934717
S          -4.07780880775477   -6.64179686681729    8.55374615637144
C          -4.06174087858062   -5.19386587671016   10.96291440700218
C          -3.34572702246031   -6.06562538324648   11.75649516738058
C          -2.46349019418772   -5.65104115368616   12.83042811307462
C          -2.40445194573294   -4.41984275576874   13.43645165018132
C          -3.24184557567647   -3.32547444280459   13.14383302689762
N          -3.88857713540150   -2.39369255931375   12.95608042679542
C          -1.50841870042286   -4.09007516308552   14.47346353771152
N          -0.81075418266824   -3.75181623624943   15.32042871487206
C          -1.61518006750637   -6.79707664102707   13.14274860543920
C          -2.04581732807323   -7.90520657730043   12.37859958937702
C          -1.39617869910811   -9.12356004856791   12.46896514117534
C          -0.30989498331331   -9.23161308699540   13.32536701024509
C           0.10954778781032   -8.14872038888791   14.08344267923824
C          -0.53720127653427   -6.92347674825885   14.00314945459679
C          -3.22070058141731   -7.50276380799514   11.62011791171995
C          -4.18693249235613   -8.34937818018641   11.13450827278812
C          -4.03449554827393   -9.74395822309828   11.02908193189850
N          -3.95015650045511  -10.87983887826531   10.88083871884965
C          -5.47845690128494   -7.91256383992802   10.77652088513730
N          -6.55613010845295   -7.59533207447768   10.53756439175967
H          -8.79174900411059    2.64197906510805   -3.24992730598500
H          -8.01768451100872    4.79430077526447   -2.36678581308558
H          -6.16460052528865    4.90374384082871   -0.75759856065219
H          -5.03204421270862    2.85278840997103   -0.00620339394502
H          -7.39341436064642   -2.59087792162391   -2.18284166855603
H          -4.51187057199004   -0.45960567117953    4.38852030481231
H          -5.01110249799832   -1.86414112741487    5.34787973872680
H          -6.20197698952146   -0.65179855218580    4.84285640544960
H          -5.18865008675200   -3.95378692954322    3.90109614893018
H          -5.05624909947636   -5.82285487203032    3.41518644638062
H          -5.38380905698039   -9.73018597241753    0.17596102501649
H          -3.67129112328498  -10.88011813246714    6.03900373102284
H          -3.57236372310494  -13.03733413525506    4.57837021658952
H          -4.01297749021961   -8.30108481215065    6.41576078232860
H          -5.77536854874106   -6.06413569516382    5.28244524419348
H          -8.57988392362380   -1.66639713112290    8.05848704130107
H          -7.14179584611281   -0.74536229558297    7.62971074717001
H          -7.53751071757514   -1.01303632475905    9.33448942542102
H          -5.94694960574620   -2.78014133405839   10.33004279798732
H          -4.21212902054768   -4.19446573476620   11.34931112543931
H          -1.71424756737377   -9.96991232304591   11.88155182172653
H           0.21353553045075  -10.17250990318765   13.40106856312210
H           0.95408671617689   -8.25609253255593   14.74690710257101
H          -0.19613702263296   -6.09422020218388   14.60069932528354
