116
 SCF done       -211.845404882062          0.000779508394
C          -8.98676723669691  -11.67067791439767    3.89546133812110
C          -7.91126517400801  -12.53115260847849    3.73221196327562
C          -6.71181279148431  -12.08660383872642    3.19401304677524
C          -6.54987964804934  -10.76307501058742    2.81442523446361
C          -7.61599494594686   -9.89401300361992    2.97677005800947
C          -8.84400193977586  -10.34645547066274    3.51089544499605
C          -9.78997334591235   -9.23672459311650    3.53365024098971
C         -11.06376478374875   -9.28000774266821    4.02892790438407
C         -11.63161877518366  -10.41506347255901    4.64830723199352
N         -12.15346391327856  -11.29606758104947    5.16672614133222
C         -11.99937897060011   -8.22156080848069    4.01509064536678
N         -12.83322992226613   -7.43342075258927    4.03361489205208
C          -9.12899254672169   -8.10839074657867    2.88402173957063
C          -7.72307912629907   -8.46679638142297    2.72976232761080
C          -6.66917253415994   -7.59355052714252    2.66043023265169
C          -6.79574844672590   -6.19398746065385    2.79456345621284
N          -6.83558522019759   -5.05805906708269    2.95514329124924
C          -5.32405107209746   -7.98235174700281    2.51878160945486
N          -4.21194251130265   -8.22416462619475    2.36195871094266
C          -9.75578179455826   -6.98503374971354    2.42422024004055
C          -9.26951459053364   -6.08050419550224    1.44993525944052
C          -9.63679656775263   -4.76688497554347    1.27403078730396
C         -10.50523253276229   -3.82150658234880    1.99428031557054
O         -11.21227033871313   -3.98895698322658    2.95352062735804
N         -10.34996935268985   -2.62535762650934    1.30648497260698
C         -11.03402014878568   -1.41060605124910    1.67376215591706
C          -9.46944018129378   -2.69564359469322    0.23474263782131
O          -9.22045144474874   -1.76065613889958   -0.48640701876301
C          -8.98907674599980   -4.09327903345751    0.21567616806038
C          -8.11075272096000   -4.88892170522853   -0.49710856151396
S          -8.13730420308114   -6.51072582455370    0.17868042653539
C          -7.17933236292225   -4.60593040652406   -1.54900615432934
C          -6.36284704600343   -5.61704045499059   -2.01592264799720
C          -5.33394693180905   -5.32667457973800   -2.92338243712374
C          -4.33700319563150   -6.14728831269939   -3.44046016965807
C          -4.21427576241890   -7.60544498938805   -3.16652362162389
C          -3.68875790362280   -8.42799448661499   -4.35472937947405
N          -4.32266518620682   -9.73438290029550   -4.34498192829711
C          -3.35904016264693   -7.85252173023514   -1.89812125752791
N          -4.06584296396126   -7.37356716680581   -0.72876804438206
C          -3.46116505422421   -5.28793842225349   -4.20535649344349
C          -2.29128450830078   -5.52351856379682   -4.82686780890314
C          -1.53152173902834   -4.43365211019485   -5.50996076817537
C          -2.19677916287272   -3.09723532835619   -5.49204937169387
C          -3.35469080051545   -2.87098838607175   -4.84612928308652
C          -4.01824972440244   -3.92333863570992   -4.17068526628341
C          -5.15062127899502   -3.95867910977355   -3.38398804622811
C          -6.05805687198760   -2.96117237309491   -2.95266072776532
C          -7.03587358508111   -3.27289756945398   -2.06519035481123
C          -1.14190022584366   -4.91114900282225   -6.88190347147186
C          -1.52460286806841   -4.34216749613747   -8.02734036856187
C          -1.10681247145832   -4.79410927633085   -9.31742796774415
C          -1.35094687995966   -4.18789507009478  -10.52519411351005
C          -2.08290149905441   -3.00628771434369  -11.00067856543386
O          -2.71787747051914   -2.18214842411069  -10.39451138029945
N          -1.90327886907282   -3.01712506993887  -12.38468349934606
C          -2.46198765055257   -2.01574386098184  -13.25919122433664
C          -1.14122999364260   -4.07768916912969  -12.84546095406735
O          -0.88788122495541   -4.29171787482478  -14.00842010215052
C          -0.75381028969728   -4.82427786765025  -11.63654306938327
C          -0.03735630981864   -5.95378784765125  -11.31104423368279
S          -0.14199266923825   -6.22627937759340   -9.58140583805241
C           0.65183794117728   -6.89732873565978  -12.12314836246235
C           1.27121017155691   -6.66225350573565  -13.30916152505940
C           1.61398767133588   -7.70090499825561  -14.28386235913976
C           1.76217274133756   -9.03824081756628  -14.04498741368383
C           1.65340419021360   -9.65505244709473  -12.77963358565537
N           1.58313251971961  -10.21661999154384  -11.78085405861390
C           2.09786820297841   -9.98488042635887  -15.03831284080772
N           2.37214071947425  -10.80303960400239  -15.79422723194770
C           1.77603456614058   -7.02738474691584  -15.56326474871057
C           1.73143578891219   -5.62894988093413  -15.35571750671056
C           1.83723177618386   -4.75193665869891  -16.42180518716591
C           1.99296984342306   -5.27734210526412  -17.69563280885530
C           2.04894406569300   -6.64936398652508  -17.90120068464472
C           1.94074833067016   -7.53776332086246  -16.84199656265787
C           1.58736264894835   -5.37781354019085  -13.93292752841613
C           1.93538959008270   -4.22828926265834  -13.28272214795424
C           2.29272892077161   -3.03186437491844  -13.94051516081267
N           2.57363409681696   -2.02478330253674  -14.41236640653124
C           2.01962999765373   -4.10135381664266  -11.88136698716612
N           2.14435437077091   -3.95186879721660  -10.74974931882186
H          -9.91006839576914  -12.03747450940002    4.31201108139383
H          -8.01375861595306  -13.56430919422264    4.02690498261779
H          -5.89287778559897  -12.77850563963334    3.06949989638866
H          -5.61755836167942  -10.42586915929298    2.39118444479353
H         -10.74942949560551   -6.75263887081435    2.78716844057926
H         -11.71161411696492   -1.64730136681751    2.49195569862969
H         -11.59271867706656   -1.02678425038375    0.81963291931460
H         -10.31448077496307   -0.65533172910796    1.99284748027915
H          -6.46676761397522   -6.62524529659241   -1.64201557754595
H          -5.21478082006081   -7.98834195917669   -2.94428035241222
H          -2.58707275832960   -8.48462004601096   -4.31380600647992
H          -3.97254314800130   -7.93820221496441   -5.29037752897186
H          -4.06748635873580  -10.24982545493415   -3.50956361824888
H          -4.03433147840971  -10.28059266677894   -5.14858603726285
H          -2.36736022772541   -7.39027167031361   -2.04208249076983
H          -3.21883162715627   -8.93008726515004   -1.78050109796934
H          -4.04136240942309   -6.36100869234135   -0.68190830802766
H          -3.66284516717825   -7.73768254013604    0.12785011000849
H          -1.83977150471008   -6.50421016323394   -4.85154987523379
H          -0.58100598299206   -4.33224603153599   -4.95413948146815
H          -1.67314876698451   -2.30146435806625   -5.99838223315837
H          -3.79202331582502   -1.88395286985687   -4.82842685031223
H          -5.95350641144286   -1.95120571486079   -3.31880080501402
H          -7.71554877404381   -2.51269860130964   -1.71942181878547
H          -0.50577131852127   -5.78773927052589   -6.90702743053933
H          -2.16202632609504   -3.46862381492012   -8.04160740630772
H          -3.11560619318705   -1.38195538908496  -12.66275936991069
H          -3.02647650884616   -2.49662999915710  -14.05823902133833
H          -1.66569136541425   -1.41438581834042  -13.70106099540482
H           0.61464291014482   -7.91512035879728  -11.75745846860556
H           1.78012900118518   -3.68638072348789  -16.27251895386281
H           2.06880886542199   -4.60826249639114  -18.53905113584007
H           2.17232394389459   -7.03457001359140  -18.90184178148426
H           1.97617761277961   -8.59987414318043  -17.02135095386092
