87
 SCF done       -174.279848241327          0.000824385187
C          -7.34720374740194    2.01590650564007    3.63887742299443
C          -7.54841196404185    1.80193324903989    4.99369541848074
C          -7.15229965463036    0.61659731327612    5.59920990253740
C          -6.53420175619610   -0.38612521211118    4.86830526278759
C          -6.32236174074517   -0.18299556117341    3.51389248832027
C          -6.73598068088948    1.01920885415611    2.89262565027337
C          -6.41550920586943    0.95597442643892    1.47501175719557
C          -6.53290714878371    1.96864620742194    0.56624246918552
C          -7.00040424636989    3.26379014023441    0.88173555381535
N          -7.36993219714687    4.33308704269239    1.07184640735327
C          -6.17019718991912    1.88316083624153   -0.79649329211346
N          -5.89327254871531    1.89155680690386   -1.90995799344720
C          -5.94831890531088   -0.40758559769063    1.21582545840209
C          -5.67356324732024   -1.01980714580620    2.51941071506087
C          -4.78107112560110   -2.01993416371745    2.77455442236063
C          -3.96115540596785   -2.62708523083344    1.79898203174795
N          -3.22998606732867   -3.11810746667184    1.06241720206969
C          -4.50409882629613   -2.51708239699352    4.06660641181336
N          -4.24369170019352   -2.96531121045437    5.08988673111197
C          -5.93127817451378   -1.01062687905847    0.00494765702345
C          -5.80703598098460   -2.42808204865730   -0.20956327556271
N          -6.38605902670701   -3.26770982080583    0.63567632953762
N          -6.28503013741580   -4.55476329812062    0.53957696745658
C          -5.62579851597543   -5.16665044578750   -0.43699804696507
C          -5.03474734469824   -4.37143387260508   -1.46023095172712
C          -5.12392480422768   -2.95045115714134   -1.33871041184451
N          -4.49399763670772   -2.31949993376419   -2.32492683773373
S          -3.86031102050932   -3.41701613647258   -3.30924360874608
N          -4.35327153892501   -4.73964484301597   -2.53890400781379
C          -5.52257197517037   -6.58822741515178   -0.43963253762997
S          -4.64065250589212   -7.38033846247320   -1.70404613111767
C          -5.01673131355485   -8.92747804290184   -1.02059126303070
C          -5.77482563157931   -8.82071603523127    0.14219775952874
C          -6.06339580621979   -7.48990276939121    0.47357420064846
C          -6.85626942333535   -7.11330691770737    1.67800785562054
C          -7.60594364162116   -8.31771331962478    2.23925443623006
C          -6.66899048129989   -9.51742438961225    2.35613136570511
C          -7.29730842445796  -10.66455268016085    3.10603520909090
O          -8.32906239377393  -10.61584775369212    3.71158735670992
C          -6.22305039331424   -9.98052997493432    0.96492024890445
C          -4.54198288798112  -10.11826212127920   -1.64020493421723
N          -4.98988029604026  -11.29569837745148   -1.21242673919823
N          -4.54944105605663  -12.42345098548485   -1.66913777725883
C          -3.64977513206804  -12.53223443585934   -2.63492458273308
C          -3.15117560105247  -11.34195888544284   -3.23586460487108
C          -3.59896023482754  -10.09151526757675   -2.70680193091906
N          -3.04481516417923   -9.05637585329971   -3.32842850031100
S          -2.06115130422336   -9.61154286817478   -4.47269505308925
N          -2.29047569212138  -11.18374557721092   -4.23610071893749
C          -3.22096451422195  -13.81266053776627   -3.11451823346461
C          -3.52178728103052  -15.04092479672004   -2.62448643791470
C          -3.32990577157772  -16.27987504852545   -3.38449869540563
C          -2.42099621380848  -16.49436940318695   -4.38066533997837
C          -1.44865832952363  -15.56018634193594   -4.80449568175924
N          -0.62192517078778  -14.86319355551834   -5.18803975834849
C          -2.29555100932476  -17.71299747096758   -5.08377945507437
N          -2.14846264833113  -18.67380167364312   -5.69317881205919
C          -4.28001583017000  -17.24270953588877   -2.85005440461819
C          -4.87523817961297  -16.70098100164678   -1.68657895892622
C          -5.83463069797690  -17.41605401937667   -0.98797603206870
C          -6.19409436422091  -18.67117376784084   -1.45463278250789
C          -5.60462690496534  -19.20779957246858   -2.59182388056575
C          -4.64360938395736  -18.50313622388304   -3.30002820882799
C          -4.28257706378759  -15.39909398561314   -1.42457354672087
C          -4.25336798792472  -14.75592208559537   -0.22400413718093
C          -4.98042938002089  -15.17188531093363    0.91178049561057
N          -5.56105646460384  -15.45336322957965    1.86037992409206
C          -3.40215657270712  -13.66432499749209    0.06676996683115
N          -2.64929193898729  -12.86791167496887    0.40932902635785
H          -7.66789722895652    2.93859863427693    3.18371092169458
H          -8.02494274390283    2.56946173711407    5.58404815618235
H          -7.32825243212451    0.47143193734251    6.65400458977937
H          -6.23888123778991   -1.30616590197211    5.34586176971390
H          -6.06695569314300   -0.42627007123040   -0.89430485168913
H          -7.54238868938652   -6.30364963558770    1.42572412963655
H          -6.17164260891414   -6.70845817147900    2.42940391618610
H          -8.43574606226512   -8.58072389935948    1.58064969127517
H          -8.02168106861538   -8.07723453781348    3.21770432735016
H          -5.77869745977595   -9.22661748094034    2.92903177841536
H          -6.70102359952527  -11.59709016322871    3.05649290366091
H          -7.05356525800297  -10.47361227454568    0.45113255742313
H          -5.42002508955089  -10.71742424543895    1.02832282468749
H          -2.64938382900129  -13.74805132552938   -4.03112059098101
H          -6.30365858122603  -17.00589167278947   -0.10836964393831
H          -6.94483148905282  -19.23768824519263   -0.92534299663359
H          -5.90044489904047  -20.18739721701187   -2.93465400815296
H          -4.20051542675387  -18.93042006362491   -4.18472201707846
