106
 SCF done       -209.770825602974          0.000873762037
C          -4.50386545156578    3.19151165382779    3.63670028371887
C          -4.59865417915116    4.17904283129016    2.66730885103167
C          -5.21841978427553    3.93279059338819    1.45028761754955
C          -5.77408634036102    2.69316627543674    1.17165268832299
C          -5.69108104963947    1.70193097730115    2.13521842688502
C          -5.04618171919834    1.94422495156169    3.36905254375306
C          -5.07424981170799    0.72302663035790    4.16369505301108
C          -4.64862363042470    0.60130982952167    5.45951787128020
C          -4.12658912932238    1.66754346199915    6.22327033790736
N          -3.69453057780429    2.48544672388227    6.90259885765947
C          -4.69789065739100   -0.57643840375894    6.23480965479736
N          -4.70787238452874   -1.49414871997713    6.92510481559482
C          -5.62241405273981   -0.32410130580818    3.30726581428965
C          -6.19573085048060    0.33809714315194    2.14014442078931
C          -7.22509970014674   -0.11923719355859    1.36138719172682
C          -7.88310775648001   -1.35221027546580    1.54412352998097
N          -8.48364890127399   -2.32390613154202    1.66138375922425
C          -7.82887752279096    0.63431191743709    0.33189239361291
N          -8.36623305665863    1.19436922634044   -0.51303744851343
C          -5.50671959459895   -1.66460399610799    3.55933284940356
C          -5.61629425855439   -2.72071652681948    2.63093109154083
C          -5.45809384797926   -2.69335474730206    1.25025979993858
C          -5.59748088414350   -3.94916965762525    0.68138960088782
C          -5.86188432935002   -4.95968682408123    1.63433441161489
S          -5.90895401582190   -4.35427773997669    3.22310877711979
C          -6.00872785469061   -6.18603274801424    0.94813303227992
C          -5.83631013331654   -5.95844910427710   -0.43127366146463
C          -5.58377089352279   -4.54155799123189   -0.64263510976127
C          -5.40951310311010   -3.89246137457101   -1.83015755686258
C          -5.42607186947016   -4.57117320193951   -3.06620277791420
N          -5.43369768002579   -5.12968364902799   -4.06749416993599
C          -5.20711580492385   -2.49713909327541   -1.87980999588681
N          -5.04282738838498   -1.36239774752238   -1.89997133194356
C          -5.96351044214686   -7.11357413183566   -1.19466487878670
C          -6.23778019820351   -8.22708647514271   -0.41460980214411
S          -6.33681113459028   -7.82513313200113    1.29723340171226
C          -6.42914343023311   -9.56554992803039   -0.85756664608842
C          -6.77503958166605  -10.58816774497272   -0.00263925035693
C          -6.97439781757627  -11.90984238507901   -0.38352381857624
C          -6.81213402365018  -12.33116015960375   -1.77596994982331
C          -6.47984714695161  -11.49643389825731   -2.78564830512507
S          -6.19383872084069   -9.81889320340326   -2.58287478731259
C          -7.08532591432291  -13.72621403180965   -1.77942340958241
C          -7.40682428994824  -14.15819987342547   -0.48868047406231
C          -7.67590369801264  -15.54582512283752   -0.46170665807959
C          -7.55800422395771  -16.10725674569678   -1.69361626315097
S          -7.11764157211455  -14.99099115051603   -2.93806301678903
C          -7.34823908923674  -13.02615240563305    0.40278934586968
C          -7.61813733259378  -12.96022215013595    1.78276038650519
C          -8.05245910621851  -13.98086257444924    2.57597497297742
C          -8.33530426693411  -13.84144045044428    3.95136270344500
C          -8.21678704609702  -12.71498371005555    4.76220053486674
C          -8.61607981428195  -12.96281666636447    6.06635375723138
C          -9.04672577865603  -14.29034473271568    6.27595012935180
S          -8.94803678991054  -15.22557747553315    4.84771526781852
C          -9.43479017836705  -14.43226995604155    7.62315581083009
C          -9.25202384498208  -13.18755079945103    8.27473277508767
C          -8.72484789554617  -12.23242026008049    7.32121176294624
C          -8.37985629058160  -10.93289067386215    7.55764279101719
C          -8.52161706599502  -10.35914812192916    8.83854493135905
N          -8.64884663622647   -9.91238268747092    9.88695890696187
C          -7.87016643232438  -10.09956821088038    6.54122024910727
N          -7.46456003981846   -9.43000089288233    5.70282336003226
C          -9.59330855355699  -13.22384449110916    9.61640038278034
C         -10.03304471529164  -14.48094231287597   10.01710337460497
S         -10.04648694912969  -15.62395318326914    8.67136503537023
C         -10.51168097612337  -14.91181199043837   11.26803381457656
C         -10.33792544425313  -14.31308553323948   12.48904234084626
C         -11.20686642599890  -14.54054914180709   13.63780377502598
C         -12.09995065073008  -15.56377473108866   13.81915136636167
C         -12.32293361448727  -16.63202684723668   12.92557071206278
N         -12.56000345769023  -17.53018443377118   12.24992049392953
C         -12.90790615657945  -15.71352359503907   14.96653827872240
N         -13.59012243578109  -15.90384299192913   15.86985321725208
C         -10.95722677869719  -13.45351807160455   14.57599369232824
C          -9.87322044064401  -12.68131872831606   14.10163439289327
C          -9.44837194182433  -11.55758221134159   14.79001171820366
C         -10.10620676299478  -11.21321054605621   15.96149299531712
C         -11.16081326471389  -11.97846500001318   16.43846749365036
C         -11.59828918958440  -13.10266397375575   15.75360900180489
C          -9.37262742671088  -13.29390050407123   12.88062770646427
C          -8.10682094350550  -13.12888283037057   12.38329384166836
C          -7.16858850347267  -12.21328028835453   12.90574207953303
N          -6.35788694642018  -11.49791023666765   13.28965071478593
C          -7.54110070304739  -13.91724999409065   11.36167685403863
N          -7.01459552097187  -14.54539163375938   10.55731176412197
H          -4.01074715935323    3.39998939171521    4.57167383065295
H          -4.17648646592834    5.15260112679026    2.86416299971516
H          -5.26842438977810    4.71420133964923    0.70769832780416
H          -6.24278587217395    2.50785332183702    0.21891583915615
H          -5.23945297798343   -1.96627006267776    4.56313008019921
H          -5.21089203197495   -1.80029844495086    0.70526434799631
H          -5.86855585013755   -7.15709033198572   -2.26477022984935
H          -6.89858199427951  -10.32089842553239    1.03864709680052
H          -6.37288394355088  -11.83091815816888   -3.80538939651501
H          -7.93815648599997  -16.12021035529575    0.40710975723379
H          -7.70500566764032  -17.13579157596676   -1.95948104321470
H          -7.47847471305226  -11.99094897090697    2.24017313410440
H          -8.21630150437261  -14.95943764379895    2.15343112973875
H          -7.85645386859331  -11.76746104541760    4.40788608997703
H          -9.57245413839946  -12.37267434536977   10.27272274234425
H         -11.14638449140611  -15.78708101918482   11.23043772630749
H          -8.63779101572006  -10.95012073023894   14.42160391634316
H          -9.79260504388729  -10.33600529912998   16.50624638392472
H         -11.65587165784555  -11.69384702583991   17.35431307365546
H         -12.42468490160026  -13.67881452347570   16.13572368415323
