102
 SCF done       -205.844533132099          0.000994939813
C          -6.71261906434448    0.75295856488433    7.06087658607720
C          -7.12409407300737    0.20868553878062    8.26855776301593
C          -6.91497323087679   -1.13186702203010    8.55996148885126
C          -6.27820156169860   -1.96654503480827    7.65394352583248
C          -5.86205652539913   -1.43329376250549    6.44572574686933
C          -6.08363515449847   -0.07112489489298    6.14084331755567
C          -5.57111613438789    0.20431515470899    4.80391325007829
C          -5.51166282480624    1.43428171052834    4.20554840199392
C          -5.93263627441522    2.63352705830033    4.81942828190546
N          -6.25312802356250    3.64480658633594    5.25736265566035
C          -4.99697422664010    1.69508246682283    2.91796921618896
N          -4.59809036389678    1.98179908762169    1.88003532286262
C          -5.16641906941401   -1.07783906612261    4.23832927965371
C          -5.14800536963133   -2.03931218300788    5.33399472457773
C          -4.35293709742118   -3.15201058494726    5.41443230882086
C          -3.43451124399645   -3.53381081332167    4.41439128992858
N          -2.64703087740929   -3.84816864780884    3.64042371684967
C          -4.29138789556210   -3.99433082961326    6.54337965237720
N          -4.21636977724855   -4.72519376851523    7.42513598623621
C          -4.94881519020611   -1.31024206598232    2.90756113998907
C          -5.00044793241521   -2.53775810484311    2.21381608566029
C          -4.46589057954592   -2.77207328762355    0.95357576108244
C          -4.72977918400325   -4.05642273261426    0.49618164986911
C          -5.52028771745184   -4.80510749205739    1.39539784976976
S          -5.90723797850179   -3.93591616496501    2.80515776185536
C          -5.75057250541261   -6.08307499773066    0.84258397597071
C          -5.09640254618179   -6.15863451235807   -0.40101585335206
C          -4.43662450262878   -4.88561284435178   -0.65961689035186
C          -3.70366099347299   -4.55037508308147   -1.75910437377456
C          -3.49425365022275   -5.45625788665771   -2.82073270338249
N          -3.32742419715421   -6.19478216566695   -3.68168560833106
C          -3.11568735553902   -3.27659869421493   -1.91628026189192
N          -2.64186166101272   -2.24256047279158   -2.05639394047431
C          -5.25980456102418   -7.39163306533958   -1.02540630659358
C          -6.03991992761638   -8.25427091364498   -0.27119132017991
S          -6.57290470557577   -7.53045667547758    1.23659466259541
C          -6.42267406603399   -9.57777288535809   -0.59751751999064
C          -7.26559600058759  -10.41088678768297    0.11677074454452
C          -7.43316554783133  -11.64392654459018   -0.50946301245916
C          -6.70403767436560  -11.75419945523442   -1.70800558326880
S          -5.82105125057341  -10.33848361620507   -2.06634876010690
C          -6.94321621992495  -13.03447700475468   -2.26711355032385
C          -7.83019254064064  -13.73005244024330   -1.42656420657360
C          -8.16518867452557  -12.88154372554887   -0.29402709245452
C          -8.99440931711517  -13.17994466335972    0.74719414432777
C          -9.65792198324069  -14.42098373618124    0.84513306104983
N         -10.19942285642333  -15.42862672412345    0.92330967261877
C          -9.24444326177891  -12.26472256027950    1.79137192078926
N          -9.44789313342233  -11.51707656177825    2.63643874774403
C          -8.13797541802861  -15.00555516094708   -1.89793400804679
C          -7.48872689954123  -15.28824686127831   -3.08662704321626
S          -6.48362459646084  -13.95771960894275   -3.62882810628816
C          -7.57280831473720  -16.48790158940178   -3.84751226734061
C          -8.40785159905001  -17.55175137175425   -3.62309408676516
C          -8.24577216382739  -18.59205450404820   -4.56243357149052
C          -7.25416573476742  -18.29990566808543   -5.51576202467656
S          -6.54333603671576  -16.73704632289797   -5.24446822118267
C          -6.88823389503400  -19.15795425441375   -6.54597899209235
O          -5.90998111410763  -18.67135962132026   -7.34101581437918
C          -5.42805349272437  -19.34596500322308   -8.48036649937675
C          -7.57623465423831  -20.39064907030521   -6.60439425743524
C          -8.60267959717391  -20.68146587897757   -5.63875544606872
C          -8.95606017490666  -19.81352756411360   -4.62011828400636
O          -9.89218148118512  -19.95367899426240   -3.65156398355303
C         -10.71174310257469  -21.09720823520950   -3.58158917705890
S          -9.29431205708309  -22.26155242482150   -5.94373406954207
C          -8.22665283500877  -22.52978588066681   -7.30941744547343
C          -7.40042490795205  -21.45427342981954   -7.51433453240969
C          -8.35392410752515  -23.76308958386143   -7.98736218003776
C          -7.66285234727634  -24.29303015549682   -9.03551156420439
C          -6.54298647507780  -23.78591299372611   -9.81772404274744
O          -5.97195172531181  -22.71879829099873   -9.70295788716448
N          -6.16076570277074  -24.71225700525716  -10.77767468944229
C          -6.86737025467954  -25.87357309024330  -10.82559680789329
C          -6.68491359817694  -26.93230824383232  -11.67753665498615
C          -5.71138650420956  -27.02676076833428  -12.68750293792047
N          -4.94073854014034  -27.16476914515153  -13.52741245563609
C          -7.52771068628559  -28.05921564859947  -11.57194323549837
N          -8.20995469520183  -28.97723844486548  -11.49032814919201
S          -8.12088131864172  -25.89472280487773   -9.61327151062890
C          -5.05744012422148  -24.41188535299823  -11.65871468544666
H          -6.88837609310609    1.79524325143033    6.85211299919182
H          -7.61834315277902    0.84093682134290    8.99016782070647
H          -7.25212820882443   -1.53309640406774    9.50335915218363
H          -6.12619205411439   -3.00831849319603    7.88578901368389
H          -4.78665283734322   -0.45299061401745    2.26658459584136
H          -3.88712906162303   -2.03258258216708    0.42983987402527
H          -4.84528190244074   -7.66662720166896   -1.97865967959026
H          -7.72875219525339  -10.11574822351279    1.04130670084366
H          -8.79226349980348  -15.70066490559427   -1.40615941304581
H          -9.12314167780514  -17.60205432986849   -2.82425130262237
H          -4.70013689258300  -18.66404990814758   -8.91929816373389
H          -6.22327489227038  -19.53591321329888   -9.20511193208286
H          -4.92740894274305  -20.28095652851135   -8.21819314551172
H         -11.37074823734827  -20.92092082952690   -2.73242984847195
H         -10.12935941886108  -22.00422798328811   -3.40140732173602
H         -11.31471350124170  -21.21985665629974   -4.48483971582969
H          -6.68874558266852  -21.47226532811359   -8.31350267177891
H          -9.14024457335259  -24.39826640652894   -7.59340255792232
H          -4.69434600452468  -23.42155764584812  -11.38282840016544
H          -5.38360619836769  -24.40577370168576  -12.69889561129994
H          -4.25706441598381  -25.14220184348062  -11.53810847348593
