110
 SCF done       -195.148203657935          0.000504102090
C          -4.49085038405253   -0.39821779557300    7.41827775805079
C          -5.10005784379325   -1.06765665016707    8.46985686249325
C          -5.36356730538007   -2.42738716336848    8.39717183839906
C          -5.01502546480564   -3.16091333426068    7.27259359517589
C          -4.40604986272320   -2.50286757694944    6.21824879586369
C          -4.14749761316554   -1.11557320968481    6.28382650798935
C          -3.53455558068489   -0.69036041447868    5.02948626225549
C          -3.07374552167156    0.57252589120577    4.75417278726566
C          -3.10404833687764    1.64307158741500    5.67103099758877
N          -3.09530524524520    2.55803265823520    6.36506976459536
C          -2.47969097348034    0.98374124872790    3.54393790970170
N          -1.99058363582181    1.39462590683801    2.58892101176991
C          -3.54677976755957   -1.84218704597949    4.14435333902708
C          -3.90083814185303   -2.99975246376598    4.94753154484987
C          -3.53821267717431   -4.29880257649829    4.69431628473003
C          -2.74531335976169   -4.69023975710853    3.59629048838341
N          -2.05769374423064   -5.04287812226470    2.74677009135892
C          -3.82785632122075   -5.37757940561667    5.55171650393874
N          -4.04987557011049   -6.29682789940603    6.20315597811196
C          -3.33999171734179   -1.79082610893705    2.78482170022552
C          -3.78889092869963   -2.68381658117432    1.80068023644929
C          -3.34414653908823   -2.71840119578511    0.47779633667608
C          -3.98983436992134   -3.64603800635393   -0.31805983964045
C          -4.99770047599177   -4.31979559163240    0.40264714471957
S          -5.11113497355605   -3.81677162489422    2.03909767809525
C          -5.72896444989948   -5.27689930899886   -0.31726873746361
C          -5.34297138475535   -5.44863098959183   -1.66250104945372
Si         -3.91876373680325   -4.28908679450772   -2.08135736921407
C          -4.38619689076962   -3.00445562394119   -3.35645811132210
C          -2.32991713373005   -5.18102041446213   -2.48848965604655
C          -6.10891999112054   -6.41398844994303   -2.28809612681435
C          -7.08391808398628   -6.99775345914466   -1.47176888448030
S          -7.02793190252793   -6.30460118187763    0.14267773785713
C          -8.03614780617130   -7.98717329117492   -1.74464206174830
C          -8.23102359994761   -8.66266028101353   -2.93048738437037
C          -9.21200770456977   -9.65176766068484   -3.18029487393973
C          -9.19098575936719  -10.16940581928807   -4.44568453870944
C          -8.18721498382560   -9.61847472376934   -5.26292396043794
S          -7.27662971016210   -8.41913931947412   -4.37615598128907
C          -7.83059170985358   -9.87022822849326   -6.57931632946002
C          -8.36213602814453  -10.73761375788325   -7.55071558715102
C          -7.70835295938918  -10.68131484154051   -8.75120444772789
C          -6.62627359281002   -9.77040865382449   -8.78871902915240
S          -6.47402835959077   -8.98490371996059   -7.23604521275030
C          -5.78632286870934   -9.49395788585595   -9.84833008423615
C          -4.72044616378355   -8.58846638335289   -9.83382794205438
C          -3.86333582931198   -8.26624807478013  -10.89685612602944
C          -2.89748300240108   -7.32473698853495  -10.58846767171674
C          -3.01001783868945   -6.91288552603109   -9.24336001180551
S          -4.29111187285268   -7.68132663818237   -8.39871211190158
C          -2.08698414161110   -5.96128437554903   -8.79817419845273
C          -1.16046994113959   -5.50236489917523   -9.76184419391179
Si         -1.46101930781174   -6.40539053247480  -11.38088321618754
C          -0.02412328659990   -7.51377564700593  -11.83184571684654
C          -2.00855721984952   -5.27786294067023  -12.77218387713364
C          -0.27320447645747   -4.60205609736426   -9.20790237773999
C          -0.48163759924342   -4.35109403364092   -7.84584345645071
S          -1.87102427634386   -5.25394097975985   -7.25698017363276
C           0.14895862325020   -3.50082025646590   -6.93497416260139
C           1.34346023094037   -2.81706952605777   -7.03637684010313
C           1.65174463645009   -1.63507398902536   -6.25310367104798
C           0.99662171406631   -1.17139869374615   -5.13725040807226
C          -0.09359459599577   -1.78718220145694   -4.49407117987538
N          -0.97961343580167   -2.21993649393423   -3.90144758688548
C           1.36081874170647   -0.00109263626665   -4.43944009756798
N           1.59660032144776    0.94036309372006   -3.82574848126337
C           2.80682425384857   -1.00133270546154   -6.88027390365130
C           3.26553807723117   -1.83070107408684   -7.92799061702558
C           4.34497084913693   -1.45327901598900   -8.70731810456308
C           4.96687110705113   -0.24271830391420   -8.43641617625835
C           4.52565897932467    0.56792929937024   -7.40195817923319
C           3.44491094916213    0.19869791373131   -6.61349693211061
C           2.44679786545725   -3.03553783460995   -7.94795096294325
C           2.81707187571677   -4.23168393135122   -8.51440907380390
C           3.92364480554870   -4.39140634472513   -9.36986956126306
N           4.78874030889115   -4.57949526329790  -10.10190046528767
C           2.19011705378048   -5.46281182946163   -8.24281167668151
N           1.75002010410876   -6.50056034504680   -8.02212034081582
H          -4.29771206190090    0.65907403220504    7.49358826265117
H          -5.37520953978361   -0.51672315353843    9.35637513235044
H          -5.84638631424194   -2.92399703437724    9.22503362082201
H          -5.22863222273193   -4.21638304630507    7.22253437295830
H          -2.83757246035990   -0.91761997546526    2.38854100325005
H          -2.54256972582991   -2.08739713831193    0.13716600195124
H          -5.24121053608128   -2.39906841103267   -3.06093278725808
H          -4.62971812756091   -3.46258873629394   -4.31308084192957
H          -3.55270576262832   -2.32820164803642   -3.53454570611738
H          -1.97372305304648   -5.80391250341256   -1.67006541455097
H          -1.54376100694584   -4.46439278919624   -2.71835963280523
H          -2.43892998172335   -5.82184033258216   -3.36164942084796
H          -5.96738138834200   -6.69003265405710   -3.31578106007705
H          -8.69697901246739   -8.25517226074085   -0.93006595143939
H          -9.90687205661819   -9.95327204010180   -2.41620659031839
H          -9.86450251863884  -10.92808982672835   -4.80233509800152
H          -9.20510170888058  -11.37461680797387   -7.34968006485462
H          -7.97332768294685  -11.27076160634861   -9.61141231910100
H          -5.96470778510052  -10.02168626555921  -10.77588643882617
H          -3.97119742310454   -8.72601458019820  -11.86354750305467
H           0.31419475215022   -8.10592706523068  -10.98335016582343
H           0.83262519498254   -6.93627299089808  -12.17373441818088
H          -0.27693434097951   -8.20826305021201  -12.63039874864525
H          -2.83732930293259   -4.63359835643906  -12.48415404934233
H          -2.33325908634481   -5.84562369441028  -13.64164458515827
H          -1.19995648557502   -4.62982640130831  -13.10411568470023
H           0.48705323085542   -4.09598960047176   -9.77677513490624
H          -0.43351088453154   -3.30854241864525   -6.04340071352533
H           4.69507258796421   -2.07381281727647   -9.51628114850600
H           5.80512659844516    0.06852581289966   -9.04089031676401
H           5.02653563190111    1.50343718297586   -7.20474358101311
H           3.11692997341387    0.84373306717876   -5.81547141095733
