158
 SCF done       -306.832274887288          0.000776849127
C          -5.90670276190758    3.05978884216506   -0.89094173505620
C          -5.73248312977555    3.52660724273522    0.40327086469317
C          -6.13629287910270    2.77395695397232    1.49714224791681
C          -6.73438142498825    1.53442222725834    1.32791894469956
C          -6.91442337435280    1.05785289912530    0.03997065381764
C          -6.49485924594797    1.81823969849421   -1.07520581829457
C          -6.78304437201508    1.06918199574566   -2.29101376863467
C          -6.67464003487968    1.54011958549932   -3.57024005501285
C          -6.24520679266907    2.84489674914332   -3.89658920484535
N          -5.90459730328116    3.88854453022944   -4.23066689933016
C          -7.02028294486619    0.82610635054274   -4.73845037250994
N          -7.28948699313902    0.31611613771519   -5.73106630691303
C          -7.21884539007710   -0.26140443326835   -1.86909526863058
C          -7.52635917383147   -0.16975614689541   -0.44491922416390
C          -8.43047133142498   -0.93178236180022    0.24400302875265
C          -9.22362354721162   -1.93576935346246   -0.35214948486876
N          -9.92793253524093   -2.71756402172327   -0.80884234325934
C          -8.72520155606975   -0.75434270566567    1.61039366052441
N          -8.97255336930723   -0.67061418469486    2.72849780323656
C          -7.16660531928434   -1.36129273748447   -2.67515957339388
C          -7.18070160937545   -2.72967623227902   -2.31033090756429
C          -6.90526716829973   -3.32566890490800   -1.10326783431720
C          -6.95811054603122   -4.73124680107300   -1.13391604262648
C          -6.75025983785725   -5.62860697894497   -0.06002805687983
C          -6.59256160994949   -5.17249447272242    1.30234975138722
C          -5.84427204025358   -5.72022351974763    2.30791667974715
C          -6.00050400206110   -5.04212930621105    3.53382346388168
C          -6.86851139591709   -3.98685184702741    3.49545951083655
S          -7.50893456190351   -3.81188568268600    1.90240274123844
C          -7.26417119561881   -3.07330478086940    4.59643357065960
Cl         -5.16743631140426   -5.50399894340166    4.96648728777045
C          -6.76913634340514   -6.98129958305626   -0.37967737777311
C          -7.00879770285896   -7.46784029979381   -1.69079230291860
C          -7.25246802413954   -6.57317296943241   -2.75216021750957
C          -7.23440897543282   -5.21984697683954   -2.43784008432118
S          -7.46632364188003   -3.91991846195260   -3.56485345610732
C          -7.49976631216710   -7.05473739901554   -4.09629961006728
C          -6.85768657934238   -8.05876813849046   -4.76334846611847
C          -7.37599340933401   -8.26803572185776   -6.05936915922950
C          -8.40912683801227   -7.44091114901694   -6.39372474070422
S          -8.75454427303410   -6.36128297473199   -5.08582673816985
C          -9.18776528984196   -7.38705085616305   -7.65620902242567
Cl         -6.74682784740202   -9.47754688403120   -7.11254950596156
C          -7.02418692907161   -8.88133737419238   -1.73238467428980
C          -6.79887164910354   -9.47021962041212   -0.52261834872734
S          -6.56811738710495   -8.29367824520589    0.75125885431922
C          -6.70281678330823  -10.86594015381911   -0.25366798833148
C          -6.61218145159753  -11.49005069291836    0.95497693072322
C          -6.48472333156601  -12.89782385404230    0.86015078418754
C          -6.40319913802320  -13.83721329497261    1.90861718090088
C          -6.54959671146376  -13.46439163713863    3.30021047236505
C          -5.90559840918897  -13.98829224309131    4.38512471233290
C          -6.34614982288639  -13.43113446432332    5.60457720541921
C          -7.32927015089612  -12.49334226239517    5.47697707990973
S          -7.72269620950205  -12.27588249115305    3.80618447519149
C          -8.01737554466422  -11.71269818850721    6.53541420929581
Cl         -5.68833254623517  -13.91170729576422    7.12162838847874
C          -6.19982792214790  -15.16293335342772    1.53510408164652
C          -6.11105995367997  -15.58789609275190    0.18596989042434
C          -6.26271024522665  -14.65958911735320   -0.86308180163370
C          -6.42855503800176  -13.33012252701900   -0.48844908234670
S          -6.62240188925249  -11.99521342020036   -1.58896771976180
C          -6.27720558343095  -15.05323562097213   -2.25670400068266
C          -5.76946890502663  -14.37601846986815   -3.32891765852170
C          -6.02700263975904  -15.02232719170854   -4.55679893431844
C          -6.73528352224125  -16.18363686999995   -4.44711765962123
S          -7.09271151125309  -16.50250792953596   -2.78458241853698
C          -7.18657450153091  -17.10529799929934   -5.51972896114193
Cl         -5.48792123760033  -14.38095709251820   -6.06111546171652
C          -5.85744617268510  -16.97652355167079    0.08679954662402
C          -5.80370113354233  -17.61175778920454    1.29198484864191
S          -6.05395731489555  -16.51209261412688    2.62958931229562
C          -5.55103465953471  -18.99425856852062    1.52467290642333
C          -5.64337244790548  -19.67738817597317    2.70199581934852
C          -5.31986708117044  -21.05068221730599    2.59045262557628
C          -5.29577295679647  -22.02567292431804    3.60867229002902
C          -5.70079356030185  -21.74794094829437    4.97096485241346
C          -5.15955938743306  -22.24733944540071    6.12152394506187
C          -5.84559915268962  -21.81939462449563    7.27844014197298
C          -6.91683397129312  -21.00957703287380    7.03397306259408
S          -7.08398523933867  -20.74859645811688    5.33169523516635
C          -7.85542345509452  -20.38742939505839    8.00081147589026
Cl         -5.36130540300424  -22.29378508333145    8.86035709121375
C          -4.88223546683585  -23.30199272366010    3.23609561880254
C          -4.49026671409538  -23.63311813982098    1.91472286668793
C          -4.48958684360835  -22.64983090195663    0.90087551455322
C          -4.93820585256494  -21.38936661073688    1.26538418813930
S          -5.04016314992855  -20.01688733004524    0.19990924065727
C          -3.99790936921567  -22.96536269268451   -0.42268561021285
C          -2.90193818929330  -23.71942215584110   -0.73537139845609
C          -2.70737328387203  -23.85231050155963   -2.12639106916200
C          -3.63776945472192  -23.20419914908755   -2.88709209963141
S          -4.78550036456247  -22.39996788977612   -1.86864118810766
C          -3.73421242307753  -23.12487387428387   -4.36599687305647
Cl         -1.40680365223529  -24.77184102985887   -2.78181180593244
C          -4.17228462002588  -24.99864093092533    1.78343591444711
C          -4.27973290951773  -25.70734243336246    2.95334002368249
S          -4.83369209409899  -24.69773918110150    4.27179986131105
C          -4.07423391861815  -27.09582933345035    3.16812337779243
C          -3.27092061593628  -27.92072459610194    2.43919663036563
C          -3.38597089334251  -29.37797667569626    2.40868648649466
C          -4.01164638762735  -30.17867892320471    3.32382850709486
C          -4.63621190681838  -29.73369777112794    4.50910613521951
N          -5.15367493482338  -29.44810346091721    5.49305337699446
C          -4.07732580281832  -31.58563642373187    3.22635741825768
N          -4.16770072810856  -32.72932878835086    3.20709315611847
C          -2.69846045436094  -29.82685660877210    1.20524299451794
C          -2.03805329547500  -28.72432155090094    0.61686709885938
C          -1.32983251061244  -28.86966331172740   -0.56466215386762
C          -1.27487817974143  -30.12469936706724   -1.15120540858704
C          -1.90883365197930  -31.21286493692693   -0.56744448310286
C          -2.62651522711357  -31.07759511494947    0.61151975782308
C          -2.24307838480246  -27.56073542026233    1.46356913575851
C          -1.42709061284536  -26.46450227115538    1.50371877257175
C          -0.35958824956798  -26.24675187579947    0.60559926399570
N           0.51548470443228  -26.00422761610790   -0.09575762979563
C          -1.47997014144902  -25.45802898374494    2.49206344656427
N          -1.42951199967454  -24.62701365183153    3.28202108053438
H          -5.58079143846509    3.65498863822742   -1.72790454097847
H          -5.27090352960217    4.48961101085529    0.55895374758467
H          -5.98230102277666    3.15592433269170    2.49469357637244
H          -7.03744570801578    0.95487311208947    2.18478267906586
H          -7.02539639311025   -1.19021359070281   -3.73450383170928
H          -6.60128589418754   -2.76872773055820   -0.23639794963198
H          -5.17504251445220   -6.55042817617180    2.18064350084598
H          -7.81452998096817   -3.62144692234855    5.36153218253024
H          -7.89361281084382   -2.27110223787257    4.21852333595493
H          -6.37884629206095   -2.64575899174020    5.06669703787558
H          -6.01773979033720   -8.60324976180795   -4.37335998000758
H          -8.83764962299756   -8.15889529823754   -8.33696677096488
H          -9.07419873153024   -6.41464795258638   -8.13430860330211
H         -10.24814210906749   -7.54109352201684   -7.45965924881854
H          -7.22288499635603   -9.45304661400995   -2.61993459229774
H          -6.62359279930233  -10.94450700867529    1.88061631187959
H          -5.11802362507013  -14.71596906260986    4.32869667450735
H          -7.65295931567130  -12.02047538758951    7.51225091070060
H          -9.09429723004586  -11.87138461609710    6.49150771013835
H          -7.83087265217746  -10.64656733552662    6.40830295448134
H          -5.19743053685100  -13.47013185545426   -3.25721244679553
H          -6.72670670505945  -16.82166574779967   -6.46315430820709
H          -8.27019876802360  -17.06200629822960   -5.63187126514532
H          -6.91501394290365  -18.13261301138536   -5.28217303140029
H          -5.70690668517638  -17.49852701915773   -0.84022567246145
H          -5.92854384458068  -19.19620615544391    3.61930506824010
H          -4.28100209587383  -22.86408246529457    6.15816111465104
H          -7.60304938909803  -20.70391753107109    9.00963225150920
H          -8.88184550208184  -20.68028185621427    7.78264294643211
H          -7.79839993702728  -19.30051463827082    7.94617334842331
H          -2.21899950972846  -24.11482609520683   -0.00631906190715
H          -3.00958379304978  -23.79909704501644   -4.81542283049059
H          -3.52932238446852  -22.11044843583403   -4.70814279701615
H          -4.73360503296646  -23.39665135979306   -4.70185519780998
H          -3.94048014228665  -25.45986423233308    0.84018093410284
H          -4.67204915706721  -27.53010827589100    3.95807112708890
H          -0.84274129766649  -28.02874051820974   -1.03139023675696
H          -0.73213003977036  -30.25418883960519   -2.07493966304797
H          -1.84892350245512  -32.18138754047713   -1.03978390313207
H          -3.11961375328803  -31.93241379157331    1.04405903243275
