125
 SCF done       -228.664332530694          0.000690885467
C          -5.16847385649726    3.65196254101243    0.86991249151609
C          -4.25638652315341    4.11665837249685   -0.06571570659366
C          -3.35465413025960    3.25661861708130   -0.67735608148328
C          -3.33414772413770    1.90566651925254   -0.36546067995339
C          -4.24253016870042    1.42943820949875    0.56496037847708
C          -5.16759515093574    2.30181778832858    1.18454566924581
C          -6.00383364106814    1.53524873148134    2.09909895803691
C          -6.92079498296667    2.04338455211838    2.97752432672443
C          -7.20026124627183    3.41932346156303    3.12213500398546
N          -7.47462710690153    4.52116196719324    3.28833622533320
C          -7.67912072328665    1.27757949979590    3.88903643545491
N          -8.32416800238872    0.71753289656421    4.65631974111905
C          -5.67124187304691    0.12895741012140    1.88450798385078
C          -4.42560386719340    0.10044038072903    1.12245649364253
C          -3.48652315537652   -0.89336955003028    1.16645150562754
C          -3.57853039991015   -1.99175867355431    2.05078147803694
N          -3.59562584532032   -2.84716695408018    2.81518191222106
C          -2.30648139522753   -0.89796645461486    0.39705352591911
N          -1.35660474972309   -0.96769219073750   -0.24354668881289
C          -6.49459678058795   -0.91307123310759    2.19198165432337
C          -6.47945804405068   -2.23274887079234    1.67152640164450
C          -7.17356014085991   -3.29283665730981    2.20074984276931
C          -7.03523680128994   -4.49443663793027    1.47427059706348
C          -7.60121990845730   -5.76006551249106    1.74598098554917
C          -8.52204341344479   -5.97929845431242    2.83962501533462
C          -8.63068936831260   -7.08227846884257    3.63999712439292
C          -9.67505580507088   -6.97365973393256    4.58159251060588
C         -10.38482262181871   -5.80875230979221    4.50904290183059
S          -9.74476358821259   -4.80581423484657    3.25465527755283
C         -11.53662775154207   -5.36637379603356    5.33324027489656
Cl        -10.01634979336799   -8.21761195701759    5.72022917617553
C          -7.23881390474955   -6.79701516069813    0.88892841003867
C          -6.34604391429921   -6.63118928302141   -0.20217934126141
C          -5.80886810037760   -5.35982395172094   -0.49484814183755
C          -6.18124327900838   -4.32895908417714    0.35369319409898
S          -5.67059303577759   -2.67838117862959    0.18002615747582
C          -4.89467733756033   -5.14739540261673   -1.59922060519264
C          -4.94949880360430   -5.64537009164409   -2.86957369848914
C          -3.85728257869149   -5.23017064956814   -3.66124067078100
C          -2.96211214022504   -4.42689036195218   -3.01424902916209
S          -3.47242711592175   -4.15879243157067   -1.38580020862821
C          -1.70406599545413   -3.83357778511438   -3.53287785156768
Cl         -3.67393851548616   -5.69753384282070   -5.30802049345810
C          -6.11174514088451   -7.84636796888649   -0.88193039157711
C          -6.83240418945861   -8.89399347567364   -0.37976084085181
S          -7.81765136562356   -8.44022317237361    0.98520153507853
C          -6.85351633667571  -10.23179256816126   -0.85182596747501
N          -7.64720171042325  -11.15630327078604   -0.40700412938231
C          -7.45425215613464  -12.30284729811524   -1.05881823996699
C          -6.46572420791175  -12.29895088900510   -2.05534597823788
S          -5.75406168336100  -10.73945223375888   -2.16370654250440
N          -6.27913163885534  -13.44251991992947   -2.71473785499643
C          -7.08849017148567  -14.36460979885213   -2.29275168336982
S          -8.18231808660751  -13.85554288874528   -0.97688789027062
C          -7.13900759717037  -15.69695840417245   -2.82636534030616
C          -8.14750511764219  -16.58866767152288   -2.43746416381816
C          -8.18002990180498  -17.84183004659140   -2.99580490815360
C          -7.20660638399990  -18.23392440111405   -3.93297765573850
C          -6.19911611296987  -17.35683534498104   -4.31305379598602
C          -6.17392060625293  -16.09261663567417   -3.76275690420786
C          -7.49636813425603  -19.58682018152082   -4.35573181387078
C          -8.65532573196408  -20.02598697009468   -3.69132986922988
C          -9.17655425696277  -18.95270766883429   -2.76414484542425
C          -9.16483827271608  -19.42121190049117   -1.29700616500222
C          -7.78674766556865  -19.87640157660742   -0.83228967397322
C         -10.60047683838747  -18.51386810754154   -3.15455030661216
C         -10.69751980125794  -18.03538502713894   -4.59819889716743
C          -9.17022277496855  -21.27616384209481   -3.92749181911952
C          -8.52966044173115  -22.12878888759842   -4.84043903435614
C          -7.36125888835519  -21.68253671730107   -5.47646280471035
C          -6.84312438628842  -20.42455458385392   -5.24849491798588
C          -9.02343498505266  -23.44565221439461   -5.16282511372344
C         -10.20486708192094  -23.97127220305284   -4.78007351824271
C         -10.66848442072264  -25.27014721537013   -5.13981091000990
C         -10.04652737780051  -26.25992006576289   -5.87730889356640
C         -10.84803306709838  -27.39495746081682   -6.01774213897725
C         -12.09054100679262  -27.27179309435324   -5.38389434845800
S         -12.27213491283036  -25.76222790515215   -4.61237647595937
C         -12.82464411330857  -28.47552278703164   -5.59167743681806
C         -12.04203022037682  -29.35071727918053   -6.35296948868180
C         -10.77482102437022  -28.70873443741686   -6.64742177682144
C          -9.72957608983245  -29.21930686285448   -7.36079168796150
C          -8.54313174833651  -28.48909995536095   -7.57927158904773
N          -7.57691311147774  -27.89818592975695   -7.76050831035321
C          -9.76412283345683  -30.51051345388662   -7.92716557103204
N          -9.78491153181731  -31.56086490871549   -8.38740139304478
C         -12.69560197620688  -30.57213638644944   -6.60913066830036
C         -13.93550813145772  -30.59795159551434   -6.04867850472529
S         -14.34389284847774  -29.14411823013002   -5.19568577477796
H          -5.86258749017132    4.33426368341034    1.33247984317788
H          -4.25182642186228    5.16503208783498   -0.32205811647246
H          -2.65889255847824    3.64301254880197   -1.40638828999537
H          -2.63383166449778    1.24294551913700   -0.84790442572610
H          -7.32899498311569   -0.71654408725611    2.85300090090009
H          -7.72698564279926   -3.20462940656331    3.11759787775289
H          -7.97061579165858   -7.92792997501994    3.59603091083382
H         -12.41497697445743   -5.20214820572440    4.70963142910677
H         -11.30751823929235   -4.42998241471971    5.84081863809321
H         -11.76745306368919   -6.12536930076477    6.07637982641749
H          -5.75540401896155   -6.24626739735827   -3.24866659449683
H          -0.90403072580793   -4.57514088026478   -3.52887537297829
H          -1.39754444103467   -2.99455190960203   -2.91336933614965
H          -1.84464257343300   -3.49688268424247   -4.55869381969371
H          -5.43014254998509   -7.95202361799333   -1.70574690660183
H          -8.88908635857741  -16.27439599022794   -1.71705552964280
H          -5.45092936059991  -17.65514428563811   -5.03154733168507
H          -5.41255721985989  -15.38124255108170   -4.04027706580163
H          -9.87421663432474  -20.24430000844294   -1.18755877159791
H          -9.50721544013888  -18.59863270794006   -0.66569179583744
H          -7.43396731776131  -20.71149547945830   -1.43377703160287
H          -7.82962304256917  -20.19446102498755    0.20677913647147
H          -7.06589145584757  -19.06580486873774   -0.91438510050934
H         -10.91450434166874  -17.71105722166722   -2.48442889998042
H         -11.27864705279689  -19.35678779842020   -3.00607719991279
H         -10.04632160750212  -17.18017636775756   -4.76475438321680
H         -11.71888351237789  -17.73917755948002   -4.82568565532186
H         -10.40696408181505  -18.82632539385022   -5.28624150747731
H         -10.05801885555813  -21.60385507356474   -3.40915490237097
H          -6.86437121864588  -22.34425665499727   -6.17131755598052
H          -5.94735354412159  -20.10008588899087   -5.75622342405708
H          -8.37379580455258  -24.03712507168933   -5.79392768105996
H         -10.88801781579973  -23.39620155080383   -4.17068835503764
H          -9.05957580981298  -26.15798594508536   -6.28829995621321
H         -12.27838194804245  -31.38584115624359   -7.17364079765916
H         -14.65541094606963  -31.39098801014988   -6.07904066858317
