108
 SCF done       -219.221647543096          0.000808244254
C          -9.18989127429172    0.52964658147587   -7.29302625311975
C          -9.94350399180103    0.03213663279888   -8.34612145285686
C         -10.62154113260834   -1.17375059912725   -8.23731650862388
C         -10.57354120342253   -1.91449939671288   -7.06588702438063
C          -9.82480842364778   -1.42661920997344   -6.00847762306389
C          -9.12361767784912   -0.20455288261042   -6.11937042093264
C          -8.40299219320380    0.04172668891079   -4.87564508948384
C          -7.71164915939313    1.18055170530921   -4.56009044894378
C          -7.61151590112051    2.30411715072931   -5.40817749781267
N          -7.49112964362433    3.25050310624389   -6.04624905482570
C          -7.03964430998987    1.41583055856266   -3.34213537189183
N          -6.47276631873263    1.67412194860017   -2.37762284162596
C          -8.55183682282837   -1.15899849585717   -4.06174499848771
C          -9.61106023277270   -1.95479631051822   -4.67132873113795
C         -10.45168586760787   -2.81248079880543   -4.01308050370517
C         -10.37825635586639   -3.07042590448990   -2.62818436947185
N         -10.37105419839713   -3.27491398415412   -1.49861048199894
C         -11.54356283296128   -3.46387449137793   -4.62278141056941
N         -12.43973858639138   -4.02587354419485   -5.06753247094568
C          -7.75659843560800   -1.48973851611821   -2.99770668206250
C          -7.51422846603288   -2.77420429252189   -2.46764659307191
C          -6.95985828561952   -3.04748988618558   -1.22187582382057
C          -6.77958286056192   -4.40700711618054   -1.01028715021902
C          -7.15693658955812   -5.18845341546303   -2.12699967268761
S          -7.75109904875342   -4.24888699915689   -3.41322387072092
C          -6.93633859306005   -6.54791679997062   -1.83710118666086
C          -6.42558102905356   -6.64219145067742   -0.52379501405659
C          -6.30749782801978   -5.30196019648641    0.03344306109310
C          -5.84792931422397   -4.96314852727816    1.27159581084110
C          -5.41593955003081   -5.93086848128526    2.20370701992433
N          -5.05940222469709   -6.70770583121650    2.96784715310321
C          -5.76281715344262   -3.62179840958437    1.70273222162656
N          -5.68156161786797   -2.53533891367824    2.05865054629000
C          -6.18625879333001   -7.95212308254389   -0.13746308239825
C          -6.50539169490471   -8.85786501905603   -1.14591405007175
S          -7.10928554119583   -8.07435845689183   -2.59380469631100
C          -6.39065347817874  -10.27005671564684   -1.08994063259395
C          -6.73824279159454  -11.06768464534910   -2.20389458872489
C          -6.65438916738227  -12.50939318264667   -2.20698466618311
N          -7.00284522047866  -13.17314814403596   -3.31501101763026
C          -7.41190704549995  -12.51867062783828   -4.37696974856923
C          -7.49487728867728  -11.09196832290992   -4.37500986638555
N          -7.15885281671845  -10.42350821221824   -3.29837361496184
C          -7.92738289491157  -10.39010416985393   -5.52612051675997
N          -8.27648420067572   -9.85722807333915   -6.47816504729782
C          -7.76875230844282  -13.26008271212375   -5.52845619058452
N          -8.06506682576718  -13.84471127562796   -6.46857708299194
C          -6.20677860335703  -13.22018655491085   -1.06388452774371
C          -5.84865825295892  -12.41879721537016    0.04353917992908
C          -5.93505534319497  -10.97824404815099    0.04501516471651
N          -5.54244773815380  -10.46637331203143    1.21092846785193
S          -5.11081858436529  -11.65587546693908    2.19857844270916
N          -5.39628971394834  -12.88490728828068    1.20702397998267
C          -6.10192783813383  -14.63648713261892   -0.99300914170247
C          -6.42280663655174  -15.55651741350390   -1.96688277651457
C          -6.19150231544152  -16.88861399427761   -1.59332410037644
C          -6.40739655303149  -18.05213795731319   -2.37297633168616
C          -6.83625467260756  -17.99100451346972   -3.75030944075627
C          -7.67642738622357  -18.84771387378392   -4.40954344125342
C          -7.84157548677762  -18.51426996495571   -5.76805733094287
C          -7.12622825627132  -17.42207684820931   -6.17696545744491
S          -6.23664236083286  -16.77019741278162   -4.84762045226967
C          -7.06788910463446  -16.79483085974302   -7.51730005620465
Cl         -8.85953668296816  -19.42095609394482   -6.81720390639674
C          -6.16970697506772  -19.26441434661680   -1.73499972252023
C          -5.69352968051276  -19.36547570150431   -0.40335070804960
C          -5.42435334403294  -18.19904128754222    0.34919102446408
C          -5.71046958110909  -16.98653107032969   -0.26066509082209
S          -5.50885069635684  -15.40985277783791    0.45964606978080
C          -4.86321322288053  -18.28752856125303    1.68153599818489
C          -3.87597800015599  -19.12504750880593    2.12105628547747
C          -3.57759203520692  -18.94087677077134    3.48645136268118
C          -4.32642136506816  -17.97883156763903    4.10242517277878
S          -5.42160558048086  -17.26272822512963    2.97370385700636
C          -4.26706045454715  -17.54249941758549    5.52104044266669
Cl         -2.37381510051520  -19.85438559678461    4.31129720366227
C          -5.55864503269671  -20.71098205419551    0.00639589009369
C          -5.87220412477467  -21.61705384543351   -0.96752981807897
S          -6.36828096842467  -20.84226828644975   -2.45241746050876
C          -5.84080219484229  -23.03872470767314   -0.87728011500558
C          -6.15228199896854  -23.95444751509504   -1.84581323276785
C          -6.00870211746642  -25.29130624334096   -1.41055480903964
S          -6.35947743503437  -26.61852712609264   -2.50200844898830
C          -6.01853210652572  -28.06600415868326   -1.46352366064859
C          -5.58836886337852  -25.37802778718718   -0.11426549908419
S          -5.35956139898349  -23.83068889323240    0.59881370850377
H          -8.66620059266603    1.46520999365841   -7.39987317895223
H          -9.99729480671265    0.59325882264830   -9.26646966213526
H         -11.19303199753758   -1.54355738991712   -9.07474621307554
H         -11.09596740035893   -2.85464802078795   -6.99241395061840
H          -7.17037456731067   -0.70367301277269   -2.53902917702553
H          -6.73864864693288   -2.27198206161939   -0.51056376765642
H          -5.80414120949083   -8.27425592905652    0.81394946692845
H          -6.82586516479615  -15.25556196523886   -2.91370951795771
H          -8.19864823121923  -19.66165674162463   -3.94250585274443
H          -7.68112092291545  -17.35819081362822   -8.21492693883259
H          -6.04336589257618  -16.76584988261253   -7.88486718792571
H          -7.43406808072932  -15.76923636952320   -7.46670607187008
H          -3.34623864827193  -19.81539776019963    1.49115856569973
H          -4.33711776977757  -18.40492387904253    6.18313945252833
H          -5.07908330759129  -16.85546726131089    5.74153821295742
H          -3.31920545153975  -17.04311264598082    5.72436267561897
H          -5.26353229514032  -21.00981173527471    0.99559032719955
H          -6.47292749684296  -23.68823478709986   -2.83660457899097
H          -6.21728473765917  -28.93257204945565   -2.08604652040678
H          -6.68241690676203  -28.06661444980007   -0.60415345330370
H          -4.97696092088477  -28.06104072279214   -1.15634668910362
H          -5.39525995502887  -26.24896521794762    0.47748487369599
