96
 SCF done       -184.085969391873          0.000725644002
C           0.81736266949192    1.45941399986187   -5.18917108590177
C           1.91314707804343    1.76379091196022   -4.39407502890564
C           2.07349497184893    1.18686058009136   -3.14324312369980
C           1.13392427679270    0.29686730281068   -2.64344875173742
C           0.03447737340315   -0.00850759677233   -3.42643077741160
C          -0.12332791695942    0.56374614040653   -4.70765737056268
C          -1.33586732918817    0.02536343418442   -5.31488546654202
C          -1.87500845919924    0.43150123608400   -6.51040801093728
C          -1.33276564307137    1.45597418529729   -7.31267165681672
N          -0.95034286487424    2.28065797851577   -8.01467887644643
C          -3.05589122711585   -0.06788501097922   -7.09513345321663
N          -4.00714856860234   -0.41945050526280   -7.63573324260206
C          -1.83242069697936   -1.00745793730151   -4.42203622173271
C          -1.10541802121708   -0.87736347274388   -3.17000227522612
C          -1.54301492487737   -1.23924895725958   -1.92085682509945
C          -2.78326730813852   -1.85202296511645   -1.65565089139892
N          -3.79745261015857   -2.30998723719615   -1.37065173522778
C          -0.85276814912038   -0.93926427787440   -0.72878660511905
N          -0.34462878583095   -0.71643168966060    0.27616932714042
C          -2.76580297325035   -1.95617364491090   -4.78050626604648
C          -2.96834724005594   -3.21123851325798   -4.19485447238814
C          -2.12921101183480   -3.94484488971364   -3.35816826898436
C          -2.66452142533007   -5.16811873889608   -3.00707807257386
C          -3.94873842069409   -5.40476375492846   -3.58633103586860
S          -4.44740870264821   -4.10858863142228   -4.57876459490674
C          -4.41637281598916   -6.64239071379426   -3.14061724393950
C          -3.44080904334662   -7.20083855431395   -2.27159873508827
C          -2.31586411861830   -6.28561223865998   -2.16583891135885
C          -1.19169677405733   -6.44433268104703   -1.39872470270011
C          -0.97421428823287   -7.57126720324111   -0.58630894814214
N          -0.77254169110660   -8.48341482112375    0.08371545079569
C          -0.17479718196436   -5.46785519583238   -1.38507635761142
N           0.64585795826614   -4.66646326410473   -1.40642645569587
C          -3.79413627286408   -8.41953014261221   -1.74820467925332
C          -5.05878147973091   -8.85165053498783   -2.18118312721520
S          -5.77992666903138   -7.67796176027674   -3.29591326530108
C          -5.75666957561643  -10.00474484953746   -1.83799301706479
C          -5.37117000630289  -10.95369658859324   -0.89900891048143
C          -6.06966035113986  -12.12224002142309   -0.54256330375882
C          -5.46967892277339  -12.86520156203193    0.44794363038109
C          -4.27441626379299  -12.30932210699513    0.91435731631168
S          -3.92218093513359  -10.83118205634031    0.06791707215201
C          -3.37327568768933  -12.71524906887562    1.90434316215700
C          -3.37420536906218  -13.83062510491408    2.74722971294725
C          -2.30376696400539  -13.85456311042082    3.61011199992844
C          -1.42374323628376  -12.76641364530279    3.47735328780031
S          -1.99357682619004  -11.70080829184711    2.22442634384630
C          -0.28868669726232  -12.55135865216562    4.25788610899805
C           0.64616973314604  -11.53122870597245    4.20121435657445
C           1.63185700416006  -11.43778379489313    5.18760515854098
C           2.51465074282611  -10.38264027047004    5.28759883331043
C           2.62743115592594   -9.38975263854665    4.31586658895294
C           1.88658057942528   -9.62823284511624    3.00792861450389
C           0.57835134905762  -10.43865201118743    3.15729781384053
N          -0.58030535918441   -9.62660230819001    3.46594965112867
C          -0.59350692968693   -8.43313709638318    3.07227806565891
C           0.56056248335405   -7.81014843301781    2.39907473979367
N           1.69108576131361   -8.35758377425906    2.34959771364528
F           0.40802725922093   -6.59443054182682    1.88522693489604
F          -1.64983237571505   -7.67029184732552    3.33188642861989
C           3.41895216792352   -8.25301803588791    4.40424979516339
C           4.15848939762955   -7.75217611739466    5.46864769338422
C           4.91872617576039   -6.56608808590432    5.39814433407950
C           5.55307941154692   -6.22401098917245    6.55896823675149
C           5.32322492720939   -7.12719060602516    7.61484869574757
S           4.27703184468186   -8.42513054077859    7.07678236989620
C           5.80974038274575   -7.07009546341381    8.90796977380579
C           6.65803601134491   -6.07446881509245    9.46052067892372
C           6.97216198767426   -6.27111284868770   10.76275689351737
C           6.38992338041867   -7.44709087255282   11.33825062774290
S           5.42242612883785   -8.27748324108197   10.10856691242638
C           6.51677995904500   -7.89879144623276   12.59492710637625
H           0.71575686663453    1.91178729138283   -6.16172345136379
H           2.65459839931044    2.45667643811565   -4.76206879100579
H           2.94154431638714    1.42918148181695   -2.54923899779383
H           1.27326044166439   -0.15634153533682   -1.67551787085772
H          -3.37330139693837   -1.75288112006548   -5.65201774784045
H          -1.15296839687037   -3.60396958245486   -3.06361280452499
H          -3.16111054340584   -8.98349009291023   -1.09303532417063
H          -6.70583691629982  -10.17173975479124   -2.32967370099206
H          -6.99657895840327  -12.39128273347591   -1.01771932299048
H          -5.87077928061939  -13.78243258065904    0.84053858469554
H          -4.14373138240104  -14.58087460055401    2.71361739057876
H          -2.13525754492691  -14.63149322992424    4.33518403735664
H          -0.13576306780213  -13.28976755119003    5.03689798859434
H           1.65351511364214  -12.19986465947730    5.95345225837448
H           3.14877975729211  -10.33126662587287    6.15855873669400
H           2.56847391041694  -10.19697565074348    2.36016801998940
H           0.36485148179812  -10.89651738272306    2.17984322815724
H           3.45286182028142   -7.63786228213120    3.51354234188650
H           4.97368160846508   -5.99337340039385    4.48937014442558
H           6.16830914237452   -5.35041059102933    6.67459182020044
H           7.00575622068571   -5.24428362981590    8.87214730762791
H           7.59955631644857   -5.62431755191537   11.34948760006869
H           7.11320011012979   -7.36331269221746   13.31228770275226
H           6.03189792566529   -8.79934240951460   12.92430118804260
