106
 SCF done       -215.400349629024          0.000691298878
C          -5.49916781085664    4.63569438317153   -0.27166380230081
C          -6.15940545755007    5.34990466348356    0.71719812469430
C          -6.47214718764482    4.76579524452149    1.93662919172489
C          -6.12317596034077    3.45124264595559    2.20818834300890
C          -5.45971637562786    2.73032413870742    1.22967783966971
C          -5.15260512627526    3.31778978047157   -0.01844906680540
C          -4.49338211322647    2.32507956550471   -0.85648129437411
C          -3.92046275020126    2.55932757114392   -2.07762167654177
C          -3.88864914282068    3.82339228586966   -2.70542506856266
N          -3.82506846779524    4.81850715932204   -3.27348843920661
C          -3.24379533223183    1.60417457716538   -2.86564247400897
N          -2.67676169928010    0.88406813609819   -3.55760289473700
C          -4.56721219134128    1.05509410629803   -0.13914716310562
C          -4.95602145545530    1.36561506337809    1.23195023344312
C          -4.65143110195115    0.64060161810486    2.35257949689408
C          -3.92989324690178   -0.56999128911433    2.34350981701693
N          -3.31817400468664   -1.54031046533166    2.39236609993028
C          -4.93307779064339    1.07038868608913    3.66741030737602
N          -5.12823286394292    1.36936310191186    4.75749459038989
C          -4.39952512512611   -0.16411545700649   -0.73657630501166
C          -4.82623328464158   -1.42886390507158   -0.28353931534215
C          -5.79243950979714   -1.76528726296997    0.65798480630906
C          -5.96152741609868   -3.13663196905612    0.77043646692236
C          -5.12291698335493   -3.86658711134129   -0.10121095828146
S          -4.14514005610807   -2.85812857011422   -1.05817139003853
C          -5.37793224187493   -5.24214027039142    0.08709320262271
C          -6.36818382345050   -5.39366602836363    1.07780055577986
C          -6.75732612476230   -4.07153946561951    1.54702023055705
C          -7.66072388971435   -3.76037734641257    2.52031271874422
C          -8.38385603213349   -4.74801884601851    3.22161243907510
N          -8.97588606781205   -5.55305975880573    3.78304424050349
C          -7.92163359143929   -2.41922733453954    2.87322058265903
N          -8.12371517401867   -1.32257485286715    3.14030661023165
C          -6.70762700711412   -6.72414054062373    1.30995663181936
C          -5.98956412767323   -7.58874419838143    0.49594363578021
S          -4.86524295845607   -6.73825926248730   -0.55245917226689
C          -6.10633785887434   -8.99629916167842    0.38916340138909
C          -6.93621050937588   -9.85223223103024    1.09755375076191
C          -6.83011867601506  -11.16818955915410    0.65113171198124
C          -5.90565213661554  -11.31364200340826   -0.40712536343846
S          -5.16148645840883   -9.83936270405471   -0.83293992609189
C          -5.91449726549121  -12.64801071958816   -0.84373678255751
C          -6.84956651365901  -13.37268920968443   -0.06634341412612
C          -7.43571547478231  -12.46160570945734    0.91217113133854
C          -8.36648972872824  -12.76719201252874    1.86163537275907
C          -8.88465600612760  -14.07114308877926    2.00595962860503
N          -9.30646277432744  -15.13122592560767    2.11869623183552
C          -8.87016320760675  -11.80032795977294    2.75754016945692
N          -9.27886577838658  -11.01458856499026    3.48517403110581
C          -6.98349403588241  -14.68490133478031   -0.47821295767319
C          -6.17175595246568  -14.98375893754457   -1.58243336705254
S          -5.19693678663165  -13.59640481849311   -2.06705553941229
C          -6.17936248072252  -16.18100221742938   -2.30059476919131
C          -5.49114384501152  -16.45524580572253   -3.46369006562286
C          -5.66156491286715  -17.59248756556778   -4.28726646489112
C          -4.95304226210292  -17.54977866000237   -5.45393676212376
C          -4.15713235246852  -16.39497640497509   -5.58876378486619
S          -4.33137059529212  -15.36544294278974   -4.19432695009027
C          -3.35322652115190  -16.00369271996318   -6.65248353446727
C          -3.25948076303798  -16.58185104322381   -7.93304052158530
C          -2.47209133551222  -15.87411315339624   -8.79786917791535
C          -1.89301041344893  -14.71685471965256   -8.23221659085351
S          -2.34411663219549  -14.58597982425009   -6.54957910721946
C          -1.04048171910422  -13.78245106369411   -8.79532273170960
C          -0.72378578353626  -13.59925696142283  -10.13993230629483
C          -1.37221869397139  -13.95104504511412  -11.30812788244580
C          -0.57901870537306  -13.94635613808783  -12.56198333847322
O           0.55949556526857  -13.55391914633342  -12.69809123759460
C          -1.45157408788888  -14.55276846673923  -13.58857846354476
C          -1.17680365872112  -14.83449907255700  -14.89441810882294
C          -2.18215910085222  -15.42216426682830  -15.69614492672126
C          -3.45101090512660  -15.71557704311227  -15.11918162926231
C          -4.44957347653022  -16.30187337467036  -15.92162433130913
C          -4.20197025193452  -16.57839200128270  -17.23708148067308
C          -2.94778527708138  -16.28555731485826  -17.80728586295648
C          -1.95721711924459  -15.72026770413938  -17.05364196140005
F          -2.73244352367612  -16.56723703435097  -19.10033912097672
F          -5.15526434112575  -17.13292439216503  -17.99917087763338
C          -3.70598462674855  -15.40817128857933  -13.76205945400381
C          -2.72286219323991  -14.82519451174955  -13.00980240639098
C          -2.71586718026121  -14.34375000885801  -11.62639236761992
C          -3.85374151198491  -14.12459694284707  -10.88120161810984
C          -3.89738253584110  -13.37622535646925   -9.69265664947133
N          -4.01699557568005  -12.73353520032890   -8.74779681703472
C          -5.14043505811794  -14.55356740363173  -11.25528239023328
N          -6.20894268079933  -14.91288972308943  -11.47768504864144
H          -5.27305849676406    5.10354130066642   -1.21558224570913
H          -6.43859916346249    6.37526644045830    0.52898855792094
H          -6.99665818736706    5.33941007859203    2.68518797090471
H          -6.38086171854418    3.00285620607966    3.15390691204444
H          -3.94200010844052   -0.17404619823451   -1.71706595426432
H          -6.37196729983107   -1.03467654713220    1.19236761216662
H          -7.44305373369018   -7.05753442149008    2.01865641726854
H          -7.58663312659415   -9.52058130107175    1.88579742189131
H          -7.64499783466671  -15.41054510906583   -0.04049217271087
H          -6.84974822357133  -16.94902383852189   -1.93674703762050
H          -6.32305393757134  -18.39327228916841   -4.00794933969840
H          -4.98025317359377  -18.31654782374105   -6.20667475065273
H          -3.78876466371497  -17.48011154796547   -8.19648912142341
H          -2.26504022362132  -16.17800011780061   -9.80816875223350
H          -0.52379702285537  -13.13721697294095   -8.09617551454450
H           0.22182368405449  -13.09581109704166  -10.32717143388482
H          -0.20860547523356  -14.60649620168901  -15.31336686765616
H          -5.41723119801247  -16.52815039705431  -15.50165256633755
H          -1.00231546354392  -15.50133935520188  -17.50520198451651
H          -4.67588742014841  -15.64349114663044  -13.35434363307525
