102
 SCF done       -208.993934991790          0.000239685929
C          -4.01424304573949    3.67153780065544   -0.03688495378467
C          -3.77745009111355    4.11027152990669    1.25733546438274
C          -3.30662080708208    3.24368885396027    2.23401467232187
C          -3.04682237301945    1.91324813561721    1.94163051709385
C          -3.27380042564824    1.46568429395868    0.65076334760386
C          -3.76775027595586    2.34197752600671   -0.34226015891718
C          -3.94165281274135    1.59892094857330   -1.58288338555936
C          -4.27083702234606    2.13287328984359   -2.79924234291914
C          -4.48860347889931    3.50966345047663   -3.02486282406580
N          -4.67761433669251    4.61202999779894   -3.28129647049987
C          -4.39802251171072    1.41206433743151   -4.00580476739577
N          -4.51490146530966    0.89187618713816   -5.02283413371447
C          -3.69709292466141    0.19306013867167   -1.26822267514363
C          -3.06884450025871    0.15754903765051    0.04965084644089
C          -2.21090660554895   -0.79853983585798    0.52155846410041
C          -1.81805635370676   -1.94624541693661   -0.19653967678849
N          -1.43066273618231   -2.87573512641650   -0.74811799072973
C          -1.52635978241469   -0.70262996258409    1.75282059665807
N          -0.93798125356773   -0.68189201104123    2.73720811983736
C          -4.09731529732488   -0.84781703072146   -2.05757601486687
C          -4.26005555305547   -2.20138508616966   -1.68827931179030
C          -4.46830194806814   -2.75828677955901   -0.43269138173984
C          -4.61405501056355   -4.13662813766632   -0.48839806848070
C          -4.52246652686722   -4.64485304275360   -1.80179711324658
S          -4.28671589612930   -3.42060660039555   -2.95738449374374
C          -4.65157310754042   -6.05216841473342   -1.74303236341326
C          -4.82679181190566   -6.43815715391640   -0.40046970982031
C          -4.79198449110028   -5.24677180502177    0.43344183548154
C          -4.85692039180126   -5.17387099567682    1.79339483108265
C          -4.99044656300629   -6.31810960666013    2.60870196874642
N          -5.09111732896682   -7.24528086956163    3.27480518284152
C          -4.77195799632527   -3.93380697350364    2.46207422480735
N          -4.70023040961709   -2.91529599811885    2.98388452570593
C          -4.96730683667213   -7.81482826768777   -0.24267409125291
C          -4.89159122427586   -8.48921200927263   -1.45128648391932
S          -4.64017524959456   -7.38643866393015   -2.80290974154769
C          -4.96947466672195   -9.89006839750347   -1.70390066164891
C          -4.52173269165091  -10.43673512543534   -2.86586061113093
C          -4.58145725110063  -11.82250804777256   -3.13998802044360
C          -5.25817875081138  -12.69509880841878   -2.34733302911201
C          -6.02062846639854  -12.16617348207923   -1.14890182189790
C          -5.48903168720413  -10.81438638728978   -0.61328680314395
N          -6.47390445967545  -10.11208660176366    0.17566390202946
C          -7.69539480290860  -10.29993772530866   -0.05594720408906
C          -8.17194037969676  -11.27489752074966   -1.05568882173647
N          -7.40874584820008  -12.13597682056043   -1.56117406440009
F          -9.44063750221936  -11.21614151151278   -1.43568612515906
F          -8.59814261511739   -9.61903514521063    0.63547753343488
C          -5.41331052564299  -14.07072207803558   -2.67418111236104
C          -6.24572119966564  -15.00487623572801   -2.07661655949582
C          -6.17842229523218  -16.24650953500406   -2.70235225314245
C          -5.27603671361703  -16.26982041726835   -3.78273448728851
S          -4.52042768680667  -14.76074784462760   -4.02528375974306
C          -5.29208652023269  -17.55982554599630   -4.36260810852582
C          -6.21915853514464  -18.35388056065311   -3.65287935749127
C          -6.78878113353720  -17.56085263224161   -2.57667741871278
C          -7.67618450222820  -17.98284973238468   -1.63096573396676
C          -8.17041811107899  -19.30466496811648   -1.62998229543522
N          -8.56279740364860  -20.38174782355791   -1.65294500056863
C          -8.13677092389566  -17.13298286129105   -0.60340614422340
N          -8.50227994744861  -16.43755959142185    0.23142322214067
C          -6.31125525758656  -19.64731291788140   -4.14413398244655
C          -5.45457789796396  -19.86453128148864   -5.21665576135253
S          -4.55008876015965  -18.41079242801895   -5.63288279135586
C          -5.27464635641669  -21.00899729393649   -6.02194344810245
C          -5.63792429041685  -22.30107460094834   -5.76369008725321
C          -5.79344491635805  -23.31820196411718   -6.80194477444713
C          -5.26736080240751  -23.30347553000993   -8.06510779862152
C          -4.42539059002232  -22.30089360592878   -8.59223660091404
N          -3.73212800712394  -21.52825606049953   -9.08316556816916
C          -5.46004500043786  -24.33295480439065   -9.01212046384430
N          -5.57473786999244  -25.13013415695072   -9.82945432509426
C          -6.61756254276061  -24.37492304675605   -6.23139749868002
C          -6.80342694110465  -24.11562670968885   -4.85452220075579
C          -7.57982110769502  -24.95565415304162   -4.07396262673187
C          -8.16423882918495  -26.06085652046104   -4.67441604772439
C          -7.97236529768344  -26.32552782359823   -6.02331151905097
C          -7.20032916448257  -25.48874439291258   -6.81542885669746
C          -6.05994451418370  -22.91412790313024   -4.50808009899233
C          -5.61649597569973  -22.59728259711158   -3.25274614416591
C          -5.95552540498464  -23.32724780070417   -2.09251241766586
N          -6.18893480741398  -23.88550933017594   -1.11816778967688
C          -4.69017973861195  -21.57250350193352   -2.97310327122501
N          -3.91616892295982  -20.77031991777365   -2.69853636568341
H          -4.38848195601297    4.35722756568993   -0.77898025276366
H          -3.96935525967523    5.14250094437033    1.50701528665268
H          -3.14132508496703    3.60715150765153    3.23650582753240
H          -2.69264613228809    1.24536483700966    2.70990230055966
H          -4.38113534029397   -0.62167721542939   -3.07675885964514
H          -4.54829662101617   -2.17093883302627    0.46411120703769
H          -5.11235706662296   -8.31560107811579    0.69584293003600
H          -4.08834370549317   -9.79377561309271   -3.61800713228025
H          -4.09318336214418  -12.18179205604411   -4.03406024592332
H          -5.96202184213072  -12.89959653441638   -0.33351317683774
H          -4.64876256681808  -11.00919090179052    0.06787711352434
H          -6.89440090514991  -14.77540350375504   -1.25255042687959
H          -6.99860035731314  -20.38873828256244   -3.77950994191254
H          -4.84894427100837  -20.80322011593642   -6.99527080479031
H          -7.74468010711541  -24.75231495956885   -3.02834038385648
H          -8.77881739553701  -26.72140406501252   -4.08245131657106
H          -8.43531671276357  -27.19286018645462   -6.46839059185677
H          -7.07042525280983  -25.70516350716366   -7.86296280062312
