96
 SCF done       -192.250160407071          0.000735407085
C          -2.29740579905471    0.55769736671022    5.47233882093745
C          -1.32281040545069    0.15434094843543    6.37351166254365
C          -0.65003814253887   -1.04809312506102    6.21193210751680
C          -0.92672196608416   -1.87999039939271    5.13715971250673
C          -1.89824372994644   -1.48738725293400    4.23267930958045
C          -2.59249521247405   -0.26813482010703    4.39951289431983
C          -3.56733170026392   -0.12842053511647    3.32292536591777
C          -4.34855909663063    0.97293122544581    3.08944034986755
C          -4.30670508311739    2.15049918100575    3.86485497014522
N          -4.32538301137349    3.13748523129467    4.45109140974505
C          -5.27239078269936    1.11323590666811    2.03290678210653
N          -6.04008601517910    1.30193613705163    1.19980901423963
C          -3.55215190197356   -1.38042628587090    2.58011239066961
C          -2.37497613876101   -2.11800042274750    3.01196453205324
C          -1.67110729337114   -3.01962943712246    2.25621418086404
C          -2.00808401823656   -3.34346265382390    0.92546968415915
N          -2.22724498074369   -3.59306066434372   -0.17330250104365
C          -0.48333220012979   -3.64502390914743    2.68274892090831
N           0.47709514462870   -4.19479459036969    2.98827780926587
C          -4.54777854633131   -1.79212155527779    1.73004530942653
C          -4.89856897369769   -3.09834708491756    1.34696804480379
C          -5.80776586574525   -3.41431982195073    0.34055722302336
C          -6.04548347512372   -4.77610133918744    0.24365180622040
C          -5.33753753242309   -5.52533663253111    1.21433897915433
S          -4.37581365766413   -4.54613930983519    2.22080468560615
C          -5.64969157435184   -6.88710098400881    1.05225666640020
C          -6.55711402340916   -7.01582401147434   -0.01873862655052
C          -6.85161362503777   -5.69094877676449   -0.54490478458271
C          -7.73599348270377   -5.38244185668210   -1.53577964072677
C          -8.55274666853813   -6.35847260506135   -2.14746795858946
N          -9.26151007896517   -7.13214544986781   -2.60879331943156
C          -7.94406836457646   -4.05669420736708   -1.97284102133552
N          -8.12634864529267   -2.98134891006023   -2.32555227228913
C          -6.91068305456253   -8.33247660969186   -0.28081066879653
C          -6.28175983515840   -9.21994961141175    0.58292123151409
S          -5.25479523802636   -8.39903912597209    1.75057242649800
C          -6.43665011239804  -10.62847322028181    0.63060553399752
S          -6.34557429026428  -11.44817801290008    2.15989621586326
C          -6.91081609531377  -12.94746873676194    1.48183599201471
C          -7.16148182243773  -12.80620838047895    0.10767865851491
C          -6.80855414979221  -11.51239293423793   -0.39574754500408
C          -6.85501596564977  -11.27419334019810   -1.79513137677897
C          -6.19668245262480  -10.12606239503755   -2.47564236130660
O          -6.64270419013096   -9.57304545172040   -3.44037742889904
O          -4.98265676477613   -9.78137269702463   -1.98791735195500
C          -7.44211354163924  -12.22464797500669   -2.60309400014289
C          -7.95261823237642  -13.41511393680861   -2.08793096270352
C          -7.81182504003430  -13.73221563787615   -0.75291910169130
O          -8.33359692797960  -14.89334351793680   -0.31702876926231
C          -6.91044182079531  -14.11282302466200    2.28880940278482
S          -6.17879988249220  -15.58887630608364    1.69358805583373
C          -6.16528099387331  -16.32396731758945    3.26588338569993
C          -6.71511283608689  -15.43952130377727    4.22779426369827
C          -7.17211353625786  -14.21175726655909    3.66490571036728
C          -7.84369829600272  -13.26809188598920    4.48191024047809
C          -8.63376060279473  -12.13083355015509    3.96805706840828
O          -8.78653536214180  -11.08231779348708    4.53998549991781
O          -9.27133832015232  -12.41364142701425    2.81417548898140
C          -7.88467126386013  -13.48613296291006    5.84284580557563
C          -7.36196073163124  -14.64580890375850    6.40903099722278
C          -6.81915320299587  -15.64322783588643    5.62259928588041
O          -6.38317923056769  -16.80438029201014    6.16526554970428
C          -5.66579940313301  -17.60558260709779    3.47843021917138
C          -5.11654346681575  -18.45066593246831    2.53802912190339
C          -4.62015848946677  -19.75092634692008    2.79973147146688
C          -4.11168831662565  -20.38848537351746    1.70995527567717
C          -4.17878563602554  -19.62612359285290    0.52117356606935
S          -4.92078387249988  -18.06823505345689    0.84260559380327
C          -3.74456860374739  -19.97247162154986   -0.73935071334123
C          -3.12360278742185  -21.19213062663812   -1.13138165040583
C          -2.79386952418407  -21.25113516989226   -2.44054457974063
C          -3.13128952042429  -20.07412850146693   -3.18899086973979
S          -3.89705203389860  -18.89742621453389   -2.10819087777646
C          -2.92703326423382  -19.84326416711857   -4.49297570047411
H          -2.81086350478530    1.49371373089342    5.61763147212535
H          -1.08917898161839    0.78805852682650    7.21543966435165
H           0.09869801354149   -1.34298903392766    6.93124188111613
H          -0.40345179944305   -2.81555454011688    5.02224784033517
H          -5.22974513510402   -1.03656448666469    1.36086107217194
H          -6.24263986193845   -2.66194090424665   -0.29289567220928
H          -7.61149838864056   -8.64235416721212   -1.03411447419438
H          -4.70643871795755  -10.34399611224780   -1.25266047045995
H          -7.49983560319220  -12.02905616294561   -3.66253135008209
H          -8.45222394064637  -14.12132437634709   -2.72996765200449
H          -8.31567878151660  -14.93998822887690    0.64835651765622
H          -9.83044365294145  -11.66261732568318    2.55931823120258
H          -8.36789040962083  -12.75257974963672    6.46934883398412
H          -7.42017386758161  -14.78754419791610    7.47926795127368
H          -6.50976800323649  -16.78306947771599    7.12322017282490
H          -5.70899674975206  -17.97517391386151    4.49174816973673
H          -4.65393395090194  -20.17011514744638    3.78971882490282
H          -3.69038301894033  -21.37710355476796    1.73027690843090
H          -2.94351486197963  -21.98154214175167   -0.42385617546520
H          -2.31795793260734  -22.08822020852157   -2.91947193671749
H          -2.45992060030330  -20.58594454426483   -5.11570796090170
H          -3.22290469259706  -18.92035668050382   -4.95712645850208
