110
 SCF done       -218.980464140788          0.000595861609
C          -6.12253977749129    1.14767939067630    7.89452369899451
C          -7.36603580109508    1.68990598328668    8.18376781679829
C          -8.52468084426911    0.93694416167742    8.05528683099664
C          -8.47275053501499   -0.38664487643275    7.64443742880793
C          -7.23588444948307   -0.93954925884715    7.35803288251521
C          -6.05548916716626   -0.17118365217608    7.47328231498774
C          -4.91885580465889   -0.99098678834816    7.07425076772942
C          -3.60035577421048   -0.63468882906027    7.17310421731768
C          -3.15198865071801    0.59801400786098    7.69483577195723
N          -2.71549225891714    1.57792195632554    8.10269005221422
C          -2.50062443368989   -1.44298338013804    6.81590306282836
N          -1.55847083220199   -2.04340549383125    6.54982140211890
C          -5.46461471237949   -2.23896332995389    6.54917405987400
C          -6.87091650925275   -2.28224347315917    6.93450146436081
C          -7.62958635354472   -3.40379424015119    7.13778685702413
C          -7.16663329495320   -4.72260255255579    6.95679295178664
N          -6.83075974943902   -5.81630107448030    6.86043649239945
C          -8.94364361783105   -3.38216859884668    7.65274742217492
N         -10.01047616075024   -3.43141512932769    8.07165234118058
C          -4.76074531483993   -3.10916211119645    5.76114362141765
C          -5.27101631724973   -4.08116142819690    4.87692721286504
C          -6.53102870993925   -4.17719229190395    4.29796177723794
C          -6.62608451135977   -5.24595616117879    3.42095922655634
C          -5.42506215184762   -5.98194997871787    3.31517603149896
S          -4.18601439975208   -5.33804065274774    4.28481220853153
C          -5.63316916847811   -7.04097264189119    2.40016587532933
C          -6.95765147916417   -6.97875277627999    1.92938867168660
C          -7.62823616360373   -5.85659030536379    2.56562354428628
C          -8.92669260053913   -5.46531240946104    2.41747922171287
C          -9.82045818046876   -6.13631462140412    1.55696092286499
N         -10.54136891465960   -6.67859776166197    0.84947843389991
C          -9.44280634036524   -4.35802936084771    3.12340523384116
N          -9.84183026307532   -3.45190757352056    3.70192655434101
C          -7.25118868926382   -7.97429605748977    0.99977357132151
C          -6.16216359152819   -8.79188386218448    0.75727349493116
S          -4.75587636144147   -8.33124545598888    1.70111981619525
C          -6.09047693898624   -9.87296861528042   -0.15977967326947
C          -5.02800040080803  -10.69058938244117   -0.42606186618580
C          -5.27888917907462  -11.63749376899327   -1.44210673003474
C          -6.59233522278704  -11.54055689245521   -1.97161042612724
S          -7.47464759966108  -10.26136620710660   -1.15758878078789
C          -7.01782764913685  -12.36582955490075   -3.00021057879582
O          -8.22248074717779  -12.41438218619450   -3.61097578733943
C          -9.27170672903438  -11.56935719702468   -3.19616088080108
C          -6.06601218462249  -13.28328783332424   -3.50120175692476
C          -4.75605619275534  -13.38758188913613   -2.96403736070051
C          -4.33902555242539  -12.57921612320216   -1.91965932656914
O          -3.14130008037362  -12.54997036379878   -1.28968513158902
C          -2.12954785438068  -13.46561543303542   -1.64029689584092
S          -3.85186680673226  -14.61185126955267   -3.83612913533913
C          -5.20562905556213  -14.93775467697083   -4.89469108967597
C          -6.29003650237456  -14.16511095094654   -4.57982539573447
C          -5.08409787201149  -15.88318376675958   -5.94830433701126
C          -6.02325858118582  -16.17090132525684   -6.92490194250248
C          -5.55514028161942  -17.11911297607467   -7.83103392378684
C          -4.25165680282237  -17.56430433026100   -7.53898336927000
S          -3.60843602527987  -16.80847296192877   -6.14803023998662
C          -3.86361182898082  -18.50860425118844   -8.51741224972791
C          -4.92515936032677  -18.65374920226811   -9.43863148107664
C          -6.02248059869170  -17.79568561036767   -9.03032435328914
C          -7.23752122180328  -17.67501824221159   -9.63967430859841
C          -7.55174478044906  -18.41412558256203  -10.79952029831925
N          -7.78582421754573  -19.01933999992829  -11.74503306118925
C          -8.23872307367920  -16.80854662579759   -9.15457467096653
N          -9.04567362417326  -16.09668160864126   -8.75852019500649
C          -4.64890648625684  -19.56620570833350  -10.44438735245902
C          -3.38975833495620  -20.13828554446521  -10.30635084153677
S          -2.53130864343104  -19.48953180946647   -8.90877614644873
C          -2.72051370026102  -21.05840125987998  -11.13771031121388
C          -3.25666665670197  -21.87831689553331  -12.09385775957305
C          -2.48777629373922  -22.45359856833194  -13.19344985679788
C          -1.12763193965225  -22.58712671993431  -13.27844139886232
C          -0.20201154343225  -22.22569204595020  -12.27690998942946
N           0.60782123250890  -21.96025570705427  -11.50703695227318
C          -0.45727927607267  -23.15571535251199  -14.38288634600640
N           0.15392343276745  -23.60486625052890  -15.24422642788577
C          -3.44997144390005  -22.86609059144435  -14.20697044213264
C          -4.75480405695456  -22.71465927997098  -13.68603099589574
C          -5.86547526872756  -23.00582897651188  -14.46000944043753
C          -5.66637434521325  -23.45747999076783  -15.75611882378541
C          -4.38601815490714  -23.62164663116508  -16.26564058888027
C          -3.26668766152066  -23.32831517801816  -15.50076223934939
C          -4.64973573154216  -22.25258597004544  -12.31070063966061
C          -5.61264745559752  -22.41619073506648  -11.35116949779251
C          -6.90523072160099  -22.91994303313430  -11.61160629683224
N          -7.96669040288106  -23.32944271004702  -11.75857858926821
C          -5.40661082680337  -22.20084581497390   -9.97370024355982
N          -5.28490024555676  -22.07036437314772   -8.83952295007983
H          -5.23537352283851    1.75133528751637    7.99172388540591
H          -7.43013871584963    2.71732865336048    8.50793135146099
H          -9.48116105556448    1.38573447751144    8.27498022087969
H          -9.37915437893772   -0.95979390088329    7.53607706117039
H          -3.68373698759964   -3.00827655082657    5.74683109372874
H          -7.31674873621968   -3.46642961977725    4.47916078981864
H          -8.19903039583081   -8.10940968190509    0.51015035576445
H          -4.08149661257691  -10.61962228770042    0.07818809328915
H         -10.11863219470668  -11.83587389593286   -3.82665117375663
H          -9.02645281903523  -10.51538328734592   -3.34884201807425
H          -9.53499457643140  -11.73662930484078   -2.14883024490105
H          -1.30432482978424  -13.25357599915510   -0.96202912327903
H          -1.79421117212739  -13.32329702483162   -2.67084805649972
H          -2.45459192440001  -14.49965931797476   -1.50043686025653
H          -7.22974857044477  -14.20586066933802   -5.09720695041623
H          -6.98827449423097  -15.70166184166350   -6.96924773960985
H          -5.30373104723960  -19.77783046821648  -11.26999183133591
H          -1.64306445128932  -21.04976704840113  -11.03997601859832
H          -6.86392624504742  -22.87038748883327  -14.07712873457467
H          -6.52111857912938  -23.68128779997360  -16.37570004548542
H          -4.25500344224677  -23.97744201635798  -17.27611562259903
H          -2.28088187516608  -23.45358161306300  -15.91725231006522
