115
 SCF done       -226.749282564824          0.000629585458
C          -1.05138514667581    1.61396466722721   -1.21384234345756
C           0.17327461971176    1.60706418993242   -0.56324572670523
C           0.43784284373252    0.70552550303215    0.45862300965216
C          -0.51903376966754   -0.21172327008833    0.86593690356864
C          -1.74546061819761   -0.21495189147597    0.22298351634368
C          -2.01487796379774    0.69620020995135   -0.82479172622568
C          -3.36226518371276    0.45876325266106   -1.32512902939385
C          -4.03806158138904    1.22778460642708   -2.23148343871306
C          -3.50852686027565    2.38988291976975   -2.83325167501851
N          -3.13718027261967    3.33940381308118   -3.35978684158709
C          -5.36540266980446    1.00165373653434   -2.65536943150931
N          -6.44231188053746    0.88175141803898   -3.03475424417800
C          -3.84175120682202   -0.75421013625129   -0.66544008623072
C          -2.93910656898472   -1.01064314021331    0.45376194727980
C          -3.27671561431587   -1.63901974709361    1.62010366182337
C          -4.58815448595626   -2.07895782561276    1.90666311255514
N          -5.65579900890423   -2.38348912326069    2.19672308486861
C          -2.38437945308544   -1.82855263762614    2.69499083197206
N          -1.68657693710383   -2.02814413982849    3.58362100164238
C          -4.84564870663867   -1.54506210926553   -1.13413565431136
C          -5.12136153309250   -2.90164949720018   -0.81598128875808
C          -6.31357097149741   -3.53219124596313   -1.06357047521980
C          -6.32967875226647   -4.89616826720422   -0.70440852547872
C          -7.41511781547297   -5.79821611841818   -0.76013909462956
C          -8.70574371654588   -5.44140077155977   -1.30651215755430
C          -9.93785940427815   -5.85436599641293   -0.88103558695745
C         -10.98663683641027   -5.36369469262769   -1.68600898945428
C         -10.58032423323284   -4.59156390278025   -2.73693106628594
S          -8.85759700958748   -4.44744775020774   -2.73171131400802
C         -11.40535808021178   -3.91423037629247   -3.76755042490002
Cl        -12.63798938545937   -5.72399005610094   -1.36295756943886
C          -7.17377485766229   -7.07930976261014   -0.27348639924500
C          -5.92417890801737   -7.49548855540077    0.24777826152580
C          -4.84665992716346   -6.58557820441996    0.33069854778144
C          -5.07980494150496   -5.31466693376315   -0.17866125359121
S          -3.92327180504309   -4.01753858720106   -0.18316565275892
C          -3.59992895717045   -6.95994977229605    0.95983070343951
C          -3.42384252570983   -7.74852421381093    2.06356345456111
C          -2.06767883827840   -7.89244684758478    2.42256490864877
C          -1.19642438204076   -7.22514105993016    1.60871743068059
S          -2.06385243409034   -6.38481649221691    0.36994434030411
C           0.28223304680584   -7.14677323526463    1.70393605172922
Cl         -1.56820013585164   -8.84333011017129    3.76743891861442
C          -5.92122544455133   -8.86535741828632    0.59511982749236
C          -7.12276329120522   -9.48679936251518    0.39429841705207
S          -8.31875126074720   -8.39098598945546   -0.27005580473458
C          -7.50460513073993  -10.83148647980308    0.66630720454438
S          -8.97503514865836  -11.45493749649792   -0.00404722583380
C          -8.78296020795840  -12.98744063864143    0.79287965836011
C          -7.59946909109965  -13.00182351778098    1.52891751498661
C          -6.88799190847045  -11.79033492222864    1.46250125124102
S          -5.44926973345967  -11.38960759205582    2.39546848054987
C          -4.85168595420922  -12.84811849270949    3.19818233130046
O          -3.96331181889413  -12.71291068909503    3.99057827877323
C          -5.37948144464453  -14.22444823471915    2.87070138791775
O          -4.71771122694680  -15.19641108163784    3.09991640693181
S          -7.03877534555352  -14.48096263579061    2.30185214880172
C          -9.79996194174504  -13.95536677633711    0.59765390220257
C          -9.99379946409057  -15.07623126207430    1.33490704778836
C         -11.03379101970216  -16.02357140399051    1.11511494825400
C         -11.20290571031151  -17.09213729804306    2.02853280352082
C         -12.22832586309750  -18.09573641444187    1.87395904852766
N         -12.25588355212800  -19.14513060206870    2.70924105784421
C         -11.40463988116296  -19.20820104231739    3.70021336810356
C         -10.45140700173572  -18.15694957014870    3.91535246236592
N         -10.36635038201999  -17.15598984431371    3.07884809291431
C          -9.59419487675625  -18.19819468821017    5.04363219334107
N          -8.92695353947333  -18.26569416589668    5.97212858344812
C         -11.46104578919067  -20.32446611097819    4.57132429014958
N         -11.51282036033158  -21.21169685810079    5.29431560196492
C         -13.17227052211478  -18.04516516578166    0.82338951639423
C         -12.97837532436938  -17.00129712724930   -0.10635484663908
C         -11.93939978430127  -16.00607529326820    0.03170619197303
N         -11.97741700584115  -15.12348903024178   -0.97009594039208
S         -13.18315508316070  -15.49598234822682   -1.96192119600807
N         -13.72747420803726  -16.78480753355272   -1.19016460138377
C         -14.23253858978837  -18.99083131170709    0.64341263933372
S         -14.68596398809737  -19.39750828325562   -0.99659868630352
C         -15.88431484062717  -20.47319396148606   -0.43169330821963
C         -15.97869338436063  -20.49979313599450    0.93179354897501
C         -15.03072775774695  -19.65894609387512    1.55805041071027
C         -15.00608321425212  -19.50090040820232    3.04248747243891
C         -16.34037095349160  -19.91969723661880    3.67172009880025
C         -16.68640523794944  -21.32825446899446    3.17783699060920
C         -17.00030272909184  -21.29366922184214    1.68519991995291
C         -16.22628682073708  -19.89350989296325    5.16520459328431
C         -16.98720595964140  -19.16599837216082    5.96029625004103
H          -1.23749760603978    2.31853804081509   -2.00772600446128
H           0.93241921049090    2.31407408096298   -0.86081588990114
H           1.40152605512718    0.71687135534945    0.94434694903362
H          -0.30375133805896   -0.91197426730342    1.65684090426384
H          -5.48887804398292   -1.14009259200938   -1.90489784246804
H          -7.16520920482158   -3.00099424132923   -1.44671153373927
H         -10.10689845694397   -6.44943579639558   -0.00327315714998
H         -12.42393536976434   -4.29243623648837   -3.72890406956881
H         -10.99556361341548   -4.08445469284017   -4.76151495234635
H         -11.42626118732479   -2.83795699453833   -3.59355599053253
H          -4.22652207572147   -8.17319188155014    2.63708621055482
H           0.66080547348988   -8.00630006951343    2.25219129384625
H           0.58082221135360   -6.24206613914516    2.23533755694744
H           0.73103423893039   -7.12170609577107    0.71341789309883
H          -5.03982616719368   -9.37854306709015    0.92537094026431
H         -10.49805645668292  -13.73416324300665   -0.19845064235972
H          -9.36723934686128  -15.29519446592432    2.18628767033045
H         -16.47375101494510  -21.02811511978911   -1.13526328183726
H         -14.76817793639831  -18.46817044450795    3.30929119084213
H         -14.21736675105549  -20.13565612536538    3.45487390135920
H         -17.12764212156202  -19.22719550929997    3.35518286506769
H         -17.54685828117211  -21.71636782068517    3.72549099776145
H         -15.83889618871931  -21.99021911093487    3.36588000704477
H         -17.98100007993114  -20.83211854320711    1.52942322494568
H         -17.05302615471618  -22.30724877192824    1.28149262030207
H         -15.45721161321145  -20.53407912226516    5.57763950091519
H         -17.76001298521687  -18.52128059524917    5.57325635368732
H         -16.87469053258165  -19.18227090331527    7.03077125931541
