104
 SCF done       -199.203588312069          0.000847385145
C          -6.17470517483562    4.05234130775594    1.71031486652967
C          -5.84620536062765    4.51246359751606    2.97687628705305
C          -5.20100429610912    3.69334971528355    3.89243953527730
C          -4.85351473908526    2.39167473130425    3.56330051280333
C          -5.17190481353428    1.92387882300784    2.29954251953540
C          -5.84298856599045    2.75015901473719    1.37048155365173
C          -6.08242990856740    1.98926613434663    0.15099434059539
C          -6.59800168046144    2.49002367905140   -1.01523186547524
C          -6.96316027730043    3.84053462455593   -1.20188132860658
N          -7.28648999511407    4.91914230757601   -1.42486215435707
C          -6.80755811966781    1.76212657700217   -2.20530198909230
N          -7.00159583787524    1.23942836726779   -3.20949617881487
C          -5.67730420753821    0.61462958627285    0.42620355787173
C          -4.91797993762265    0.63667781190177    1.67042722305072
C          -3.93600387743327   -0.23987705497294    2.04838016037498
C          -3.52330500021414   -1.35105305249127    1.28617359044207
N          -3.12770146496452   -2.24962394047819    0.69112534184820
C          -3.14239711535310   -0.08177233383382    3.20470701863260
N          -2.46323674428334   -0.00697418508451    4.12635178654346
C          -6.06437355455206   -0.45688819851647   -0.33434075096987
C          -6.09928338766767   -1.81833451838662    0.02164339693190
C          -6.08456680056750   -2.42010052331411    1.27505125013272
C          -6.19393197378934   -3.79925040981621    1.19737120305019
C          -6.30487363130673   -4.27081887531398   -0.12943399807804
S          -6.28714989726165   -3.01022519469529   -1.26673148000729
C          -6.40448675450289   -5.68273767591606   -0.09161620423157
C          -6.33828383553342   -6.10559209609626    1.24518712072561
C          -6.20654928701105   -4.93748602589999    2.10011953674207
C          -6.11011159870894   -4.90792497044049    3.46089361048602
C          -6.15276362152695   -6.08591042300668    4.23430069790823
N          -6.20680744833372   -7.05104044432699    4.85149252666793
C          -5.98160549191916   -3.69144199251873    4.16327082234718
N          -5.88605695583481   -2.69242063124971    4.71814458223723
C          -6.41565286185023   -7.49304486336481    1.38301023217613
C          -6.54765597943981   -8.13498092844297    0.16668511159002
S          -6.56957890796495   -6.99633888359803   -1.17090974702704
C          -6.72321782317217   -9.53720568526277   -0.06307612186541
C          -7.20938408848580  -10.46348372177102    0.84840913599101
C          -7.63960735720041  -10.32803566341332    2.26288824126786
N          -7.29336384195570  -11.65837264030050    0.20493405837071
C          -6.89722452667433  -11.55273926870977   -1.09215758480925
C          -6.84824257914669  -12.74094114954426   -1.98095689758000
C          -6.52810657975821  -10.23615721381042   -1.30895297403728
C          -5.98047025759408   -9.66398126691932   -2.50257823373450
C          -6.27483138157171  -10.04982556389086   -3.76188895915128
C          -5.70531620143806   -9.45900761727912   -4.92532863375971
C          -4.68440707131475   -8.52577432391683   -5.02019011803249
C          -4.41718971937996   -8.17224123141001   -6.33948741109575
C          -5.24282067718578   -8.83520215124222   -7.26590793082757
S          -6.33753903635534   -9.90274866145114   -6.50023493820009
C          -4.89370702055156   -8.40906497567754   -8.56514860532211
C          -3.83642995912505   -7.47645108465938   -8.46938709966471
C          -3.50572774253596   -7.29841101181873   -7.06638878525263
C          -2.55278083382519   -6.48360225320232   -6.53097700244727
C          -1.71147929149810   -5.67711896467535   -7.32742743755568
N          -1.02488810063581   -5.01866518078785   -7.96650309334253
C          -2.35504458223362   -6.39291348061914   -5.13664365906574
N          -2.20875356865212   -6.32113582721433   -4.00164457334140
C          -3.43728350176252   -6.98899217547706   -9.70539063553967
C          -4.15079487592770   -7.55250268423178  -10.75796372082640
S          -5.37987292428186   -8.68120910582830  -10.17147530684757
C          -4.02044237178548   -7.17074373332669  -12.10731991514179
C          -4.53912412822170   -7.76015849217031  -13.22900538225763
C          -4.78420020984830   -7.06149502592125  -14.48546886694276
C          -4.23496135204811   -5.87895801049640  -14.90254493848304
C          -3.27031832997041   -5.13233234755697  -14.19318671759218
N          -2.48302191191746   -4.47744744851088  -13.67391525917174
C          -4.53109751929909   -5.26252149889730  -16.13695345614216
N          -4.72592437385084   -4.70911456384448  -17.12335976095951
C          -5.74753149114241   -7.86610344474605  -15.22821371512079
C          -5.95016713762119   -9.08577036911074  -14.54351381832188
C          -6.83882392744680  -10.03116961558799  -15.02641127454059
C          -7.52676182771242   -9.75268974342778  -16.19798551670197
C          -7.32384398425266   -8.55985377337762  -16.87732124976163
C          -6.43442376079111   -7.60659748643173  -16.40345766231103
C          -5.07732935844696   -9.10487720065165  -13.38083863032900
C          -4.61500126829376  -10.22953315548191  -12.74975845633012
C          -5.11025081729481  -11.52633432051027  -12.99182040585613
N          -5.48990260564757  -12.60003066331055  -13.13503872324106
C          -3.52559173133808  -10.22183019480119  -11.85370243701228
N          -2.61698922534509  -10.25539068390379  -11.15301783485299
H          -6.68354177851085    4.70088377065430    1.01652781336863
H          -6.10402917465748    5.52335213828168    3.25341926966556
H          -4.96689965739426    4.07101951023631    4.87589434624243
H          -4.36245875755599    1.75983616756624    4.28538191006613
H          -6.46252431164146   -0.24362769982608   -1.31753797357652
H          -6.04318106186510   -1.86399723192435    2.19398463730542
H          -6.34499904216814   -8.01061376325622    2.31945981196358
H          -6.78136178877218  -10.27884405749175    2.93382833360879
H          -8.24595010894714  -11.18376960420849    2.55287504009297
H          -8.22709871838966   -9.42244310006794    2.40106682441639
H          -7.60560781108227  -12.51400027523754    0.63701337877717
H          -6.68518126853178  -13.64434562342391   -1.39577411766936
H          -6.04017361290904  -12.63789667714308   -2.70120461359846
H          -7.78300893111761  -12.85909087522162   -2.53108283007770
H          -5.28452972429368   -8.84961089777670   -2.35700946507247
H          -7.01867384996509  -10.81337008627042   -3.93474982643901
H          -4.16187731318406   -8.13526188991538   -4.16736171239218
H          -2.65215583053525   -6.27176099733349   -9.86544769808869
H          -3.50844281652375   -6.22538300539283  -12.23640059159070
H          -7.00711753631027  -10.95765164463869  -14.50131043770851
H          -8.22995737471479  -10.47476007408838  -16.58387974257307
H          -7.86820909010134   -8.36541716211295  -17.78873450031103
H          -6.29369046164190   -6.68480130156882  -16.94331823890460
