95
 SCF done       -186.888574147028          0.000970194551
C          -4.79327726399563   -0.13558709780627    7.96032480434127
C          -5.05427038396975   -0.73856943101862    9.18194737520863
C          -4.86452400001113   -2.10106096637537    9.36491698473036
C          -4.39812921323013   -2.90012288640905    8.33196220857982
C          -4.13341838452129   -2.30840214592678    7.10835050619003
C          -4.33620014577037   -0.92296602645852    6.91522056899352
C          -4.00299102411110   -0.58329298500009    5.53700492549881
C          -3.96294969105113    0.67865215214129    5.00850249611860
C          -4.23359808341627    1.85266947419725    5.74412780056773
N          -4.43863782841400    2.84557479007466    6.28162390318498
C          -3.61274422726479    0.99826096059037    3.67940023084165
N          -3.34125824094235    1.33143742977624    2.61473752257889
C          -3.74174509713341   -1.84231157671949    4.84737611639985
C          -3.60721858121619   -2.86849374541774    5.87450706210217
C          -2.85422430597446   -4.00874110276432    5.77880143265737
C          -2.09275849025260   -4.35172399031442    4.64199510533781
N          -1.43152607729677   -4.64882295648158    3.75176575210443
C          -2.68207443508723   -4.92836621524993    6.83337316179148
N          -2.52198905945237   -5.72122981714542    7.64749629125239
C          -3.73437301371280   -2.00026654764670    3.48861407272308
C          -3.92356580554472   -3.18345792903576    2.74291748350468
C          -3.57501013542100   -3.35569529094495    1.40956312823904
C          -3.91898235558380   -4.61251788137629    0.92965520541427
C          -4.58685322113148   -5.40188315397884    1.89288363920202
S          -4.76887002170863   -4.59889369925080    3.38197672556965
C          -4.88651093084307   -6.65669202183835    1.32645076742853
C          -4.39993099143356   -6.67860108714526    0.00224105682504
C          -3.78429661715304   -5.38944416171066   -0.28900288504672
C          -3.20234716028273   -5.00483939883370   -1.46027687348699
C          -3.13145192307744   -5.86665339716635   -2.57545692034185
N          -3.07844929194722   -6.56760251423817   -3.48115933638462
C          -2.64109629159878   -3.72193343595371   -1.63997777998175
N          -2.18860062450550   -2.68106401015271   -1.79880358131628
C          -4.61715822474965   -7.89156188350031   -0.63561479728445
C          -5.26892594306410   -8.81085298241133    0.18218092937124
S          -5.61946308676087   -8.13711900944951    1.76784206410576
C          -5.63945378836293  -10.14682153393597   -0.08334353657893
C          -5.37129883472766  -10.80644897078481   -1.26600266484814
C          -5.79510391384538  -12.15760056050512   -1.33414605285062
C          -6.43060575098720  -12.64983499746883   -0.21220267338756
Si         -6.53320790665481  -11.30413832111423    1.08275255162007
C          -6.90473986347938  -13.97371914023545   -0.08383077259384
C          -6.79029235568180  -15.04650062583964   -0.96241812402132
C          -7.36947301397827  -16.20394372744678   -0.45968723413015
C          -7.94594977737012  -16.02522547356337    0.81600867293798
S          -7.75805152658393  -14.42572333376168    1.38638741509830
C          -8.50670724392909  -17.25107458573408    1.23621967853325
C          -8.27456078594084  -18.21598658385046    0.22940197553624
C          -7.56546172164275  -17.58707300550696   -0.86935903713728
C          -7.19523712069610  -18.17104537607758   -2.04521000975207
C          -7.47521469378446  -19.52894488785494   -2.30781978368435
N          -7.70795549069295  -20.63542861621942   -2.49838409233385
C          -6.51678854599998  -17.45921528653080   -3.05630122912702
N          -5.96047224719868  -16.87517624280292   -3.87093113707018
C          -8.80131893819150  -19.45985372927989    0.53958746836517
C          -9.45238280002491  -19.46526131100103    1.76746092004181
S          -9.36200714109062  -17.89192199601549    2.55888051534988
C         -10.08174329066637  -20.52332011310415    2.45465832200012
C         -10.51107247506290  -21.72214279707588    1.95510940412527
C         -10.75241995268682  -22.90343230843682    2.77991184765713
C         -10.97105619933738  -22.94409723025487    4.13050595103967
C         -11.04229793768538  -21.82269391917768    4.98414876251493
N         -11.12208580750097  -20.95625554593236    5.73338432607243
C         -11.20937699492841  -24.13190785743382    4.85541626263088
N         -11.40640552554346  -25.05596571643172    5.50664413623790
C         -10.72762271427655  -24.05149558813403    1.88342582021526
C         -10.66297986552481  -23.58766280317793    0.55001317342397
C         -10.59477735427451  -24.47850728121491   -0.50789087422937
C         -10.59830841558859  -25.83681387686052   -0.22743928097119
C         -10.67548258305603  -26.29552716115824    1.08015314667025
C         -10.74021948764075  -25.41205868760363    2.14752607239131
C         -10.69636792390394  -22.13340225070597    0.56725297185563
C         -11.10567637188013  -21.34379188328351   -0.47323750055250
C         -11.40535673362875  -21.83556430776610   -1.76226496146250
N         -11.67221710037848  -22.17697312017921   -2.82429901497758
C         -11.37661257924157  -19.96492736284304   -0.36508916825872
N         -11.63818980034542  -18.84774734139031   -0.32471372409880
H          -4.95093303456826    0.92312928380786    7.83748911951052
H          -5.41403990614387   -0.13509475857481   10.00113254313766
H          -5.08242666180143   -2.54746330461741   10.32297763665191
H          -4.25966533781713   -3.95878725579126    8.48113415340149
H          -3.63990165708503   -1.11050610047051    2.87913921829747
H          -3.06012844226412   -2.59617342890820    0.84902606902924
H          -4.31996366067882   -8.11541035626765   -1.64329327230609
H          -4.86391349964428  -10.35124431882325   -2.10210178312889
H          -5.61675030038523  -12.74094239428966   -2.22386779316917
H          -5.77712268532190  -11.61235333712407    2.29578684985809
H          -7.90176919553039  -10.88042170183355    1.37617651706691
H          -6.29841809372567  -14.97298357129947   -1.91466387401188
H          -8.68446779579926  -20.33840259704600   -0.06836973752294
H         -10.16871435067491  -20.37328512683521    3.52264483823859
H         -10.52231839254627  -24.13192935314774   -1.52598859216830
H         -10.53710381805649  -26.54488014666864   -1.03946555212664
H         -10.67888042588932  -27.35716066828283    1.27416987161472
H         -10.78998999707948  -25.78699086636579    3.15648811863134
