94
 SCF done       -185.066156223049          0.000601424896
C          -2.55925542087067    3.53715665626793    0.70239157482893
C          -2.11343729590042    3.93995915285322    1.95254172503840
C          -1.70391690664129    3.01352113955133    2.90127079803908
C          -1.71705444645399    1.65500632684983    2.62303909713726
C          -2.15529037596115    1.24214446608923    1.37599249529153
C          -2.58704598034526    2.18191882498278    0.41283485482876
C          -3.02229778714135    1.46782998839575   -0.78038501638822
C          -3.37966448546535    2.03985107271760   -1.97182489138330
C          -3.37082425936143    3.43035693585898   -2.21455455450552
N          -3.38784511386799    4.54596439015485   -2.48314065600891
C          -3.76118087593289    1.34034955456635   -3.13619063172658
N          -4.07806424780049    0.83884700514359   -4.11942445318696
C          -3.00217582132873    0.04609946335103   -0.44988503139749
C          -2.25496746048377   -0.08802484312877    0.79683988987020
C          -1.53609000148591   -1.17885551721817    1.20588644131751
C          -1.43885638799543   -2.38632153065245    0.48493538747951
N          -1.29082094981179   -3.37557330940304   -0.07859752813588
C          -0.71515661048338   -1.19440695754796    2.35392674852985
N          -0.02785224545421   -1.26806328793163    3.26954511631049
C          -3.66391324777031   -0.91807162172512   -1.15983921660949
C          -4.03904063845802   -2.20319870128379   -0.71437104853152
C          -4.21627330319123   -2.66684891239617    0.58401488231924
C          -4.62455966796468   -3.99069992792538    0.61619260246301
C          -4.76879180234212   -4.55550457647377   -0.67059420047061
S          -4.43003556340402   -3.43892000089167   -1.90710784348010
C          -5.14277789586624   -5.91254006933189   -0.52544300266318
C          -5.23983801622725   -6.20404525147567    0.85297564156792
C          -4.91255549403318   -5.00947954281243    1.61144574087471
C          -4.84439924530325   -4.86855658184323    2.96681326161881
C          -5.13431020587284   -5.92562226962363    3.85508830323558
N          -5.37392265028242   -6.77754889644307    4.58370127837414
C          -4.47053381943145   -3.64291355471096    3.55714349482561
N          -4.16477014511087   -2.63895222568005    4.01968223713010
C          -5.58116268287436   -7.52983143956571    1.10105229256296
C          -5.73581754723824   -8.23909304701851   -0.07754949932230
S          -5.46785641241186   -7.27039959618050   -1.50897765894515
C          -6.03070960562297   -9.62177188085083   -0.23707269050093
N          -6.05968969989449  -10.09926608258774   -1.47773558755619
N          -6.24683627834547  -11.34261237420808   -1.76146939749756
C          -6.42960721991094  -12.28439506577320   -0.83124086931057
C          -6.46759294448578  -11.88640067284582    0.54194466867154
C          -6.25957595757117  -10.50599728688907    0.85455007953672
N          -6.31164893128740  -10.27244800422111    2.16152012361073
S          -6.59662812203575  -11.66385589225286    2.92208712255267
N          -6.66369639700252  -12.62231588899618    1.62864917994454
C          -6.54783790446468  -13.65279444950998   -1.17504300019937
C          -6.45698492845695  -14.17765457325813   -2.43799751038086
C          -6.28803029370773  -13.50758652580185   -3.67762574704786
C          -6.19356545060481  -14.34499482230214   -4.74485448249192
C          -6.27187361474387  -15.71924390758948   -4.40845132996251
S          -6.50712133126076  -15.91291524593748   -2.69137038285298
C          -6.14126762023980  -16.80361951303261   -5.25930930683997
C          -5.93271568910335  -16.78249929292078   -6.65782093958207
C          -5.78747062877051  -18.02032229684584   -7.20723046218865
C          -5.87113009283636  -19.08112049782602   -6.27264710904625
S          -6.16774136808696  -18.44611826017328   -4.66718793036022
C          -5.71613161836674  -20.42347471106822   -6.54222276386707
C          -5.78814984107129  -21.41189956488751   -5.55842075952212
C          -5.56730632573675  -22.75210060891855   -5.77512622479615
C          -5.61951946124955  -23.80788374559226   -4.79199272471158
C          -6.03529117958688  -23.70559150215244   -3.48714351300158
C          -6.49939376296972  -22.52932074850334   -2.86333848308626
N          -6.89492929074118  -21.61981664976800   -2.28328641241543
C          -6.07688057089056  -24.78669047182573   -2.58308191088996
N          -6.13559653956419  -25.61999867238070   -1.79488119943825
C          -5.17675932534719  -25.04071106022548   -5.44495278536144
C          -4.91703028469422  -24.76793017938012   -6.80047068890549
C          -5.16488241544259  -23.34249637412328   -7.07605338748418
O          -5.05005263297287  -22.77689590547394   -8.14537753243126
C          -4.48109516991521  -25.75779987725646   -7.65880047361720
C          -4.29579862031292  -27.03554143314991   -7.15264818873798
C          -4.53881922960098  -27.32393244364672   -5.81271284048479
C          -4.98533954986881  -26.31846315246039   -4.95304474656585
C          -4.33964471016093  -28.70600516254546   -5.27746449607212
H          -2.88155146017974    4.27111561280472   -0.01757527851591
H          -2.09179124367818    4.99247686851786    2.19019152775642
H          -1.37230116287712    3.35199668018389    3.87078478879757
H          -1.40853271809392    0.94227109683007    3.37041243963264
H          -3.99915063479783   -0.66647492553066   -2.15707468997672
H          -4.08847743345607   -2.04550569259652    1.45192113556680
H          -5.71055605385073   -7.98378544679145    2.06702912868505
H          -6.68585063113409  -14.32590957555782   -0.34048129567537
H          -6.23944491651803  -12.43394949626218   -3.70638993015902
H          -6.05874232739117  -14.01675099138822   -5.75959164465561
H          -5.89252871044159  -15.86416242468669   -7.21505429263858
H          -5.61530477939450  -18.20986473225132   -8.25169167813689
H          -5.51327031951405  -20.71800036966941   -7.56212780490176
H          -6.01649277790175  -21.07970917559711   -4.55282614055634
H          -4.28917274277815  -25.52897092879871   -8.69584176551544
H          -3.95258809669613  -27.82329455933277   -7.80727822514394
H          -5.16748073885136  -26.55679095524589   -3.91745010167296
H          -3.78880591112048  -29.32518093117959   -5.98044204658977
H          -5.30639953561031  -29.17337556803286   -5.09015298948099
H          -3.80148818805663  -28.67545300406180   -4.33217506484135
