120
 SCF done       -239.471536695111          0.000954988781
C          -0.11746390206151    2.60983255962801    1.93104176337522
C          -1.44487764307728    2.98460690602897    2.08113482591535
C          -2.34799172636816    2.17381025145260    2.75355678091291
C          -1.94703179304924    0.96651245145923    3.30658297474353
C          -0.62441289113827    0.58396823324533    3.16393288175643
C           0.29542553032683    1.40105986700135    2.46820022069074
C           1.59442790135030    0.73800399775017    2.44679803841566
C           2.75747619510994    1.26452630523204    1.94798059503458
C           2.86559737716524    2.55480099281956    1.38753643650060
N           3.02717854032435    3.59203335253937    0.92320124377135
C           4.01072212117133    0.61801987632450    1.94781810082244
N           5.05927631602942    0.15007293267992    1.91735480566250
C           1.39873136846494   -0.58296214200372    3.02538457064932
C           0.08648066601554   -0.58587927465387    3.65445525993609
C          -0.28503607969528   -1.34965071963762    4.72991685827791
C           0.57631363004142   -2.26462643975041    5.36975786879627
N           1.26168934580450   -2.98899672376415    5.93887245162338
C          -1.52827779135177   -1.23392146443307    5.38442533123180
N          -2.52439674354076   -1.18785925195995    5.95231192130495
C           2.27384468553410   -1.63269715708885    2.89309351657476
C           2.00259439136737   -3.00597302736862    2.96552422490253
S           0.41107756875095   -3.71360049455832    2.77741657299359
C           1.01917018262017   -5.34780547009789    2.82637765350612
C           2.39431909319693   -5.32537663534052    2.98801596828955
C           2.95914563191554   -4.02555592011054    3.04534758597883
C           4.36211104582204   -4.06373775122559    3.20201062270965
C           4.83161038291623   -5.34364340379060    3.25809531428511
C           6.23301113398416   -5.74818157994641    3.41938599842512
O           7.15762682877599   -4.98330232230726    3.51478805511119
O           6.34682854739895   -7.08301914852606    3.44641444362007
C           7.66359356200705   -7.59046826160039    3.60464132326830
S           3.59276951602917   -6.56753394116654    3.12551989211040
C           0.14343375661444   -6.44308748004842    2.68495907738158
C          -1.23323240024045   -6.38664545563894    2.51752056003823
C          -1.78969600475959   -7.65091977312427    2.37055412341689
C          -0.83287144699934   -8.68305183494189    2.43100239904772
S           0.75179368591733   -8.09244317997782    2.67282262349084
C          -1.49591805853487   -9.92055269184534    2.24211733395112
C          -2.86888846079890   -9.67354149242336    2.06257579638184
C          -3.10097314391467   -8.24164578178842    2.14420290293099
C          -4.28904771740026   -7.58472876834988    2.02074061527498
C          -4.37660683566034   -6.17788063582732    2.09360686372311
N          -4.44101150894043   -5.03447714039733    2.14388279311733
C          -5.50491363580937   -8.26692529968821    1.80020858924394
N          -6.49284657296786   -8.81926654708675    1.61977788946695
C          -3.60349639121560  -10.83650649282956    1.82992893488922
C          -2.80321131431143  -11.96210245513002    1.83129935974207
S          -1.11490333432861  -11.58234026955284    2.13496876482283
C          -3.20147945774967  -13.30267999922890    1.57965006710889
C          -2.41989913436762  -14.42456818326118    1.59408075543053
C          -3.11281015952254  -15.60304621082505    1.23761100307899
C          -2.61234301732622  -16.92091709802432    1.18067064690948
C          -1.23686785515172  -17.26222304577419    1.47989879644576
C          -0.78662151300539  -18.36827092451616    2.14367701076117
C           0.62143830979506  -18.43047930499532    2.21552021255820
C           1.26336665654259  -17.39106671955539    1.60648237734890
S           0.10614555359746  -16.29376138699869    0.93378887968575
C           2.72095291609154  -17.13388755388736    1.49835804164370
Cl          1.44067048045813  -19.72402086518506    3.00126793168239
C          -3.52138480660004  -17.90695551580247    0.81804822958618
C          -4.88918753136175  -17.65611761754700    0.54035586611715
C          -5.39823663935722  -16.34118679935862    0.62826434274086
C          -4.48011121352905  -15.34876162693304    0.95703831621408
S          -4.85643509563235  -13.65704221113358    1.13636832508747
C          -6.79194256577787  -16.02938443523963    0.40052448559014
C          -7.31776301288409  -14.92134711619934   -0.20501199549936
C          -8.72774488692895  -14.91883176163678   -0.20896998369450
C          -9.29615004567274  -16.00246519773708    0.39948158471769
S          -8.06633681650984  -17.06704794561509    0.98447698933669
C         -10.73433261437552  -16.31754474885703    0.58260221284143
Cl         -9.64061374552552  -13.64753009577040   -0.92411132059540
C          -5.56030189973106  -18.82507866282091    0.12547281338313
C          -4.77733039584537  -19.95157623302169    0.12359169665863
S          -3.12398733498476  -19.58291476397226    0.58349849957301
C          -5.20728488007398  -21.23126447149860   -0.31500775709112
C          -4.61798658070160  -22.44162182417821   -0.10948508125106
C          -4.84880039446161  -23.62715918431595   -0.93274554375165
C          -5.92595769962715  -23.87773157015382   -1.73693692196419
C          -7.05224487576147  -23.03682683290030   -1.86654999044153
N          -7.99757670145882  -22.40211686741991   -2.01342609005877
C          -6.07605968370135  -25.04505688954200   -2.51658065003649
N          -6.25815969758146  -25.96811362884775   -3.17337702356065
C          -3.69932029198957  -24.49963294777561   -0.73230497056164
C          -2.89204638382880  -23.96753038038091    0.29997589446129
C          -1.72095357842250  -24.60045670507635    0.68120273110186
C          -1.35824340210400  -25.76787527722040    0.02655701263227
C          -2.15247003311581  -26.29721150717606   -0.98138284373509
C          -3.32815224756178  -25.67295945557144   -1.37057549957171
C          -3.54176219285069  -22.77610598104953    0.81880176260899
C          -3.37442564034116  -22.24591253765563    2.06779311002600
C          -2.34828247752670  -22.63164706836950    2.95481302029842
N          -1.52274078302912  -22.89224076064976    3.70780738312178
C          -4.27267656085633  -21.31846496907552    2.64100072213697
N          -5.01458389461450  -20.61393834922238    3.16033701193773
H           0.56707849729175    3.25154619007220    1.40132294205362
H          -1.77790759661943    3.92189457590909    1.66233890673308
H          -3.37739088211224    2.48364140630119    2.84808190728791
H          -2.65691842441684    0.33885126043169    3.82063163006037
H           3.29389969074850   -1.40414846659609    2.61290934761340
H           5.00513382150715   -3.20539488780001    3.27113688796315
H           7.57073474885978   -8.67289159930199    3.62603071076473
H           8.10113926167650   -7.22182545324750    4.53452151230467
H           8.29319806457542   -7.27343267385670    2.77080831028900
H          -1.77640995704313   -5.45876583580812    2.50301478184400
H          -4.66439037360983  -10.87995040127266    1.66044701223922
H          -1.37846005019396  -14.39627119559846    1.85726366956587
H          -1.42538276561016  -19.09612360935174    2.60899245352610
H           3.01834594708803  -16.32571132993206    2.16742320567251
H           2.98713883364467  -16.84483143917019    0.48324303819755
H           3.26974755805288  -18.03128863158184    1.77282907051256
H          -6.73371428660199  -14.15081483915014   -0.67253464905039
H         -10.98965973838060  -16.34356217367643    1.64174595912498
H         -10.97069571385543  -17.29245861310346    0.15814233932803
H         -11.34042334131008  -15.55980047286106    0.09265026539327
H          -6.59666843677602  -18.85583703992868   -0.15629471712084
H          -6.07559236208632  -21.19756637523193   -0.96053960161015
H          -1.09542179370026  -24.19257941615689    1.45887073419485
H          -0.44472613816053  -26.27005425505689    0.30589089564994
H          -1.85124650602396  -27.20854021038168   -1.47481535109278
H          -3.92968784013004  -26.09668257982244   -2.15791605028868
