115
 SCF done       -229.367863343011          0.000308135555
C          -0.32526651711853    1.54205497846859   -1.37972818367432
C           0.98838978814442    1.28150456257122   -1.01963840089178
C           1.32665438878405    0.12924561878187   -0.32324202069039
C           0.35839602753558   -0.79450383817669    0.03974132319888
C          -0.95649231644290   -0.54666501746567   -0.31720106022102
C          -1.30345733961993    0.62296257419816   -1.03283281494510
C          -2.73861311768919    0.61694727683778   -1.28422244567887
C          -3.47289179522155    1.64022824407876   -1.81616643588965
C          -2.92789478989934    2.87895675775406   -2.21790610921289
N          -2.54817138670667    3.90510568977201   -2.56358133657567
C          -4.87337335370968    1.62271948103068   -1.99256170513863
N          -6.00831421241230    1.67584633029992   -2.15685180950677
C          -3.22881793234561   -0.69181016923718   -0.85600177728100
C          -2.17273512819214   -1.29236671354763   -0.04382032663515
C          -2.35825665440115   -2.18799719604980    0.97308901134116
C          -3.63732601268828   -2.59346997129313    1.41582213125764
N          -4.66406428844560   -2.88195052189179    1.83914665431848
C          -1.31107972135518   -2.75072143089786    1.72960391391447
N          -0.49160832135606   -3.26804222020814    2.34452186261162
C          -4.38005807971136   -1.26965279632291   -1.29944069315215
C          -4.73312145688066   -2.64504317312656   -1.27374894606769
C          -6.00411486887514   -3.14069020725630   -1.41916429019584
C          -6.08352222424116   -4.54909068737044   -1.36469758309143
C          -7.23045957505720   -5.37002585368753   -1.44306748548671
C          -8.54584138634594   -4.83967093539149   -1.72294500488998
C          -9.75140949442977   -5.26379859905912   -1.23505205276883
C         -10.84035844892586   -4.54756432195749   -1.77165737481379
C         -10.49430248793763   -3.58874579343982   -2.68234274071703
S          -8.77833207056974   -3.54795384087299   -2.87352928822885
C         -11.37820153020900   -2.65545169587235   -3.42367770772002
Cl        -12.46879391035709   -4.86681049600033   -1.31993863485495
C          -7.02753252339891   -6.73563378601084   -1.25097290412457
C          -5.75175222714852   -7.30652889637513   -1.00869925584435
C          -4.59785866383312   -6.49277854647294   -0.98709327826774
C          -4.80688410110492   -5.13444955567393   -1.16319287940342
S          -3.55018233535878   -3.93518147173592   -1.15694009127405
C          -3.27841298413812   -7.04275186310991   -0.75206661734466
C          -2.72811767834716   -8.18954729806445   -1.25099197783811
C          -1.42074872847257   -8.41576061505118   -0.77152964191978
C          -0.96309891315758   -7.46334676625806    0.09422651697469
S          -2.16192027265835   -6.24140291173111    0.32292318421135
C           0.35240448624573   -7.39254532160913    0.77893668631832
Cl         -0.48031755553696   -9.78152473766276   -1.23620116632377
C          -5.83031225294008   -8.69766506079899   -0.78843727263518
C          -7.10014580697698   -9.20031921615039   -0.89809055961253
S          -8.26833603655717   -7.95874507834552   -1.27471370040883
C          -7.52791547666120  -10.55554382041718   -0.71415954587205
C          -6.68644593924527  -11.59799742180930   -0.36081010148573
C          -7.13491274588267  -12.90536662730806   -0.15464226869026
C          -8.45868620377644  -13.29551235394141   -0.28471606215999
C          -9.35884725057119  -12.26225842083812   -0.66643704940575
C          -8.89271487882015  -10.91442178271375   -0.87350680694847
N          -9.93943342955975  -10.18658667961736   -1.20567256338963
O         -10.98061818644238  -11.00943307383575   -1.20846543065895
N         -10.65879530544092  -12.25784533769831   -0.88774839160355
C          -8.91323164320108  -14.62626636454014   -0.03641691531213
C         -10.20529377088865  -15.10893255318649   -0.15204987186669
C         -10.29174160076119  -16.45326142637126    0.20596199862149
C          -9.05301093004004  -16.99722529708429    0.59654474476795
S          -7.78777883755332  -15.85825357971676    0.51412618129562
C          -9.24080249675726  -18.35110973034759    0.96167178246983
C         -10.60733327601876  -18.66573677737452    0.80369944371748
C         -11.30630924162628  -17.49032981442559    0.30872180380868
C         -12.62797972714025  -17.40941592203805   -0.01567891388064
C         -13.22437229789948  -16.22735962848785   -0.50502330298767
N         -13.72079074078293  -15.27299597301467   -0.89979482183185
C         -13.48083092146738  -18.52578714586130    0.12165720295318
N         -14.15684859480344  -19.44367640022468    0.24585719583418
C         -10.90047094513616  -19.97962023768241    1.13600424361228
C          -9.77287355575833  -20.68400060799656    1.54068351367323
S          -8.33299240076253  -19.67013558536539    1.53231907226822
C          -9.65466465748132  -22.01013593897687    2.00817319889342
C         -10.53181826942350  -23.04591207635761    1.84478394220066
C         -10.55801934674794  -24.23021766196428    2.70013075319024
C          -9.56327558695490  -24.68314021592691    3.52398109822815
C          -8.28631996387780  -24.10007044571780    3.66826573409510
N          -7.22880972875341  -23.68385997160293    3.83304067907726
C          -9.66621725893091  -25.84276674499938    4.32282707300652
N          -9.67943182716202  -26.77176916702073    4.99632529299736
C         -11.86142965642315  -24.85294313141850    2.51250443135445
C         -12.53753993067197  -24.19069085291438    1.46281721243249
C         -13.81942388272902  -24.56611263763140    1.09727389938550
C         -14.42043309655265  -25.61265721433633    1.78057015579569
C         -13.75371495166532  -26.27423877003249    2.80240849318794
C         -12.47172141041873  -25.90338403987292    3.18007129605265
C         -11.65844625229580  -23.16466558072995    0.92438129572228
C         -11.74440061953990  -22.63597503555547   -0.33507392303443
C         -12.79942272686052  -22.91036840870856   -1.23236445782926
N         -13.62336995181071  -23.10221455460158   -2.00688679628949
C         -10.74721677572061  -21.83871651336019   -0.93238218401715
N          -9.95025669506055  -21.21625645040633   -1.47586748118789
H          -0.56837219928508    2.44040833846676   -1.92300894843911
H           1.75890654044655    1.98745492518987   -1.28920086120102
H           2.35750443978965   -0.05221520470960   -0.06010758337500
H           0.62932048564911   -1.68964210291374    0.57611019505300
H          -5.10194731464290   -0.63995076754571   -1.80344510780849
H          -6.85766659275487   -2.49319859358851   -1.50181938457274
H          -9.86886002786954   -6.02923399033087   -0.49139068838354
H         -12.37065411731675   -3.08927635920137   -3.52370578640469
H         -10.97319038130796   -2.44463001411350   -4.41077616746948
H         -11.47080956753711   -1.71039862685775   -2.88645229475887
H          -3.20987999448282   -8.82625431059181   -1.97003892668328
H           0.55514941097830   -8.32502009883708    1.30486517287811
H           0.36470025834876   -6.57028504992342    1.48925790602667
H           1.15011433699495   -7.24040725094513    0.05106797881672
H          -4.97468590904903   -9.29438003505910   -0.53455103112046
H          -5.63485306585039  -11.40179326771064   -0.22552519445197
H          -6.40579079258281  -13.65075394363181    0.12908873672108
H         -11.02065340505129  -14.48823781180367   -0.47717319170340
H         -11.88840380372410  -20.40286487243668    1.13428014452107
H          -8.78560701326877  -22.18981928488765    2.62714910097363
H         -14.34997140649451  -24.05068779360768    0.31326316096354
H         -15.42188421593499  -25.91307937608114    1.51353039814979
H         -14.24029222849129  -27.08765174519937    3.31847578325423
H         -11.97387664082554  -26.42296969819948    3.98204602678519
