79
 SCF done       -160.839498566567          0.000828704380
C          -4.05761746237792    2.78134425791751    3.49968970783728
C          -3.88967464171797    2.92912736759904    4.86856479919243
C          -3.49516925516937    1.86148296114129    5.66281884281362
C          -3.24577560790539    0.61463428656687    5.10916507639325
C          -3.40654019495313    0.45701582881485    3.74284052257661
C          -3.82145036778390    1.53851802158009    2.93320443515944
C          -3.94068346790381    1.07700110565085    1.55648299581993
C          -4.16739335378198    1.86627890012494    0.46172442447139
C          -4.32447196032805    3.26810727908674    0.51886688644679
N          -4.46024553069740    4.40728739746890    0.49179062378971
C          -4.22851354358200    1.41597912293153   -0.87430564453133
N          -4.28681138707965    1.12148755858622   -1.98265621712750
C          -3.76703963949722   -0.37347919885979    1.58425725436158
C          -3.20620748226984   -0.70462223161304    2.89091855526636
C          -2.40065665816126   -1.77002950864246    3.18846472127419
C          -2.02299738849946   -2.76211307150634    2.26076665075836
N          -1.66080586640492   -3.57549533148402    1.53618826395908
C          -1.76792438021028   -1.95181106340876    4.43736255310287
N          -1.21864803136851   -2.14485416611073    5.42567760545396
C          -4.18693591723389   -1.20945531999771    0.58715435061637
C          -4.44957844493484   -2.59373458324688    0.66845920937890
C          -4.69811632420305   -3.38260742523861    1.78545044871240
C          -4.97409341096050   -4.69787361022588    1.44679301032024
C          -4.95199761922113   -4.92642397961003    0.05410090171914
S          -4.60065019475295   -3.51453482973828   -0.82530891957547
C          -5.24680076144100   -6.29258525581012   -0.18041826025098
C          -5.44594926727523   -6.92566806986795    1.06573586424430
C          -5.26912143607327   -5.94938105152143    2.12496660697086
C          -5.33302873867048   -6.14895160404593    3.47348190797421
C          -5.61594309618476   -7.40867139197638    4.04189735255930
N          -5.85867116247555   -8.42794873542744    4.50707806176544
C          -5.11346982094620   -5.08972194558394    4.37915142981464
N          -4.93722131252139   -4.21377945377944    5.09826710842159
C          -5.75916501910326   -8.27689187684032    0.93849297388029
C          -5.80094331261373   -8.65980902083064   -0.38881699664624
S          -5.44386057428953   -7.35743140101839   -1.49950724920032
C          -6.11311420289135   -9.94265894126139   -0.92877839821424
N          -6.09339552160695  -10.06640379782765   -2.24835806403955
N          -6.42548736342195  -11.15899433909504   -2.86183063431514
C          -6.77860809618862  -12.26381008565559   -2.22820309266076
C          -6.76842389023940  -12.28961916249956   -0.80606680975461
C          -6.44480538618115  -11.06911396795902   -0.12614624902681
N          -6.49040308316751  -11.20216955623056    1.19594678872138
S          -6.88563855407428  -12.72503064356659    1.54096973260334
N          -7.02166200333542  -13.27958811334556    0.04303797209112
C          -7.16848518262778  -13.40631750230628   -3.02861478482181
C          -6.83863023503451  -13.48941141940582   -4.39459880625607
N          -7.30414484789845  -14.44892850637097   -5.15277999482525
C          -8.04177957631819  -15.40722954240483   -4.58194760607200
C          -8.23873826998821  -15.40069256807559   -3.18698730262678
N          -7.84662570545193  -14.39660038435251   -2.44373532797000
C          -8.60954142683947  -16.42895780769770   -5.41376017071516
C          -8.40265571258372  -16.66473358897245   -6.78045740388149
C          -9.19660930296066  -17.80175295486732   -7.11220207542063
C          -9.82868836639590  -18.17203070227531   -5.89079826063430
N          -9.46828967458942  -17.35214625803630   -4.89639986855596
O         -10.66144989356611  -19.17696334273806   -5.73530169929842
C         -11.17802467179820  -19.36467902402818   -4.42725559641730
C          -8.99030673832359  -18.03184243539933   -8.47364865639633
N          -8.14030943691220  -17.13549918628256   -8.99768739746244
C          -7.76711492959270  -16.29950548310801   -8.00478415230350
O          -6.93830284906110  -15.30592348357160   -8.17232784782152
C          -6.42572190767955  -15.11758970583908   -9.48145361597451
H          -4.37388843988023    3.61955869479607    2.90102053998940
H          -4.07630016571913    3.89086356064804    5.32132242548405
H          -3.38306831036244    1.99990127920259    6.72714782378269
H          -2.95195377057629   -0.21185965385233    5.73562142887882
H          -4.42015629014597   -0.76334928972631   -0.37053072428332
H          -4.72133848011382   -2.99444531581579    2.78734100612602
H          -5.95455936513148   -8.96269366199029    1.74319235568262
H          -6.20612240357220  -12.74537216830490   -4.85599444144093
H          -8.75536492826210  -16.21487604430930   -2.70132981119530
H         -11.86860599534749  -20.20258903966545   -4.49154123683641
H         -11.69412276098262  -18.46393701932979   -4.09017229407545
H         -10.36950099567449  -19.58636825505175   -3.72811790236201
H          -9.41117508241818  -18.79591548842198   -9.10175537570235
H          -5.75379436020757  -14.26420870788989   -9.42337029243381
H          -7.23840056976228  -14.92113792431267  -10.18328219112950
H          -5.89049862273295  -16.00949842349571   -9.81275184696177
