125
 SCF done       -220.697431650076          0.000697037290
C           0.48358298589813    2.36119878234167    2.01779722580703
C          -0.47950524825244    3.34684714248286    2.16898032366282
C          -1.82696172482992    3.02475364142602    2.25808650003000
C          -2.25006732833887    1.70568935653843    2.20499388532988
C          -1.29733480429350    0.71096811785727    2.05395792522757
C           0.07522653801783    1.03761818130276    1.95558701429112
C           0.84243941540203   -0.18781359565089    1.78852789362370
C           2.20416982856738   -0.30141301520208    1.82232439075698
C           3.08379869029017    0.78642641433782    2.01221536186420
N           3.85107413084334    1.62686411684574    2.15853077525286
C           2.91955823074889   -1.51473869653297    1.72656233338864
N           3.56209796844086   -2.46432557537794    1.66980513351239
C          -0.12889900160537   -1.26525288837674    1.59372460445677
C          -1.43259547939560   -0.73532718300153    1.99568975505051
C          -2.48986878211079   -1.46144801308131    2.46809880974386
C          -2.47276260208838   -2.85955338255689    2.66470685240365
N          -2.50089021729413   -3.97808585377510    2.91971795297868
C          -3.70121992881331   -0.88506219659380    2.90530734715711
N          -4.71184040200877   -0.46732020624536    3.25305593393036
C           0.14941789735863   -2.46186165296913    1.01881482461665
C          -0.78947243633247   -3.41870719225736    0.48959680913882
C          -0.48893553057212   -4.78460623797058    0.59849934512564
C          -1.38345511247942   -5.70809209829138    0.12040991885284
C          -2.56315896117418   -5.29434875886065   -0.52304966138946
C          -2.84138128041342   -3.94316820031859   -0.68538030818505
C          -1.96083726587792   -3.01742892235106   -0.16844129656467
C          -3.28225848692049   -6.46904256647187   -0.95881497307752
C          -2.54885526058621   -7.61038747266933   -0.58217750807941
C          -1.32927034035025   -7.21578027205505    0.21758143887990
C          -0.03048293196392   -7.79962776506136   -0.35491877673898
C           0.21135985869462   -7.37094349168383   -1.79780906081333
C          -1.49983143018853   -7.55910865007745    1.71866509813624
C          -1.72291574835378   -9.03143997978537    2.03543448557371
C          -2.96350988997175   -8.86124863876064   -0.96911394719704
C          -4.15132312648850   -9.00516002173046   -1.70422153810362
C          -4.89652451402923   -7.85880453954747   -2.02166271363521
C          -4.46794986367416   -6.59673453087205   -1.66968709341346
C          -4.63831238610628  -10.28337625531398   -2.15933762082815
C          -3.98717143633207  -11.46317271877652   -2.07901177615064
C          -4.49470691957967  -12.70105089833220   -2.56552471992414
C          -5.71854473822651  -12.98887908886351   -3.14523858569616
C          -5.82773479813302  -14.33136543527983   -3.50559268046450
C          -4.67648785389311  -15.07818009586618   -3.19983540743316
S          -3.46797398693683  -14.12408798130142   -2.46441109098700
C          -4.88517337635031  -16.41718004697080   -3.61071791916008
C          -6.16988708124396  -16.52082006954744   -4.17402922111813
C          -6.80466358635827  -15.21322211124244   -4.12545601589647
C          -8.05132877258106  -14.88375012213599   -4.57027857628270
C          -8.91214765711449  -15.83482708670351   -5.15703547636705
N          -9.61170472217995  -16.60775000131677   -5.63461980181047
C          -8.55797735352531  -13.57081775824022   -4.47451092965409
N          -8.96949612607246  -12.50319909396555   -4.39941503342025
C          -6.46743738150443  -17.80812998798423   -4.61530893566302
C          -5.42281994690096  -18.68997408322104   -4.39799564477628
S          -4.04603077386151  -17.90109177214851   -3.62728497035562
C          -5.36887094619481  -20.07609878040973   -4.71771860927449
C          -4.25805361971251  -20.85245358724412   -4.46930464043829
C          -4.15856124954676  -22.20904178345474   -4.75186546614456
C          -5.26870886300767  -22.94361842355550   -5.35498978975789
C          -6.45230057668038  -22.38236912720586   -5.69146271753769
S          -6.82411363919628  -20.72705774778445   -5.45224834185431
C          -4.81156390837219  -24.28474399846565   -5.47706528885122
C          -3.50738849214603  -24.39745558323994   -4.99015144905855
C          -3.03567272193763  -25.72535355217718   -5.08367732448861
C          -3.96671903388390  -26.55631727945863   -5.62304944385997
S          -5.44847694735929  -25.77497428687346   -6.04197940685096
C          -3.07381861601253  -23.09598533802095   -4.53272557199941
C          -1.85418791050563  -22.72064681007055   -3.95899959289930
C          -0.78072532054309  -23.53894173558298   -3.70952951148636
C           0.38718158640528  -23.04934554357177   -3.12138111765668
C           1.48513398418890  -23.78849976489074   -2.72799663612510
C           2.81865562313845  -23.24965032532281   -2.54279123002213
C           3.17994269460347  -21.92847707727742   -2.43984905746862
C           2.29674169103955  -20.83085865443238   -2.45372366718884
N           1.64462113261919  -19.88423577016300   -2.45513731495635
C           4.50584319924159  -21.47978756759322   -2.27390427384244
N           5.55796180465486  -21.03890409144422   -2.14004822913826
C           3.73368228363307  -24.38542543959674   -2.50814423245471
C           2.97943437829396  -25.57884484919713   -2.56540018954951
C           3.60902069910575  -26.81152511161811   -2.57051929870224
C           4.99494025257464  -26.84875795335738   -2.51798997846540
C           5.73660467178891  -25.67917289057921   -2.45170476339841
C           5.11631248879150  -24.43798536562172   -2.44467189510804
C           1.56594931709110  -25.22596200054317   -2.57015357581563
C           0.53608812580918  -26.07727365454058   -2.24824308741547
C           0.67835434854106  -27.47272634971051   -2.11870440502369
N           0.71354934332090  -28.61781063941805   -2.03608549496618
C          -0.76476046509872  -25.66479125702966   -1.89298544886425
N          -1.82332101285315  -25.39657424381932   -1.53686721701896
H           1.52471408779135    2.62930029905826    1.94428490383247
H          -0.17379088285023    4.38079670053191    2.21446613271181
H          -2.55789180330388    3.81094214997267    2.36888887836562
H          -3.29960652549389    1.46782105142401    2.26816730496996
H           1.19021534521050   -2.73020002100821    0.89215457438644
H           0.42125669420426   -5.08639777147899    1.09468427603035
H          -3.73104529364436   -3.62022102147353   -1.20446956957691
H          -2.15324770038049   -1.96233405840487   -0.30535707884862
H          -0.07654886118775   -8.88825251590745   -0.30960379776110
H           0.80620324969001   -7.47461939013957    0.26631017608068
H          -0.60792694170176   -7.69353238669059   -2.43705555406051
H           1.13301556905306   -7.81158007310986   -2.17049088181178
H           0.29474329512682   -6.28868413385393   -1.86931296207282
H          -2.34530485707803   -6.98298622132269    2.10145752815204
H          -0.60603273520402   -7.21082389067128    2.23987383922118
H          -2.65765481913085   -9.38471075671449    1.60780882441011
H          -1.77677492598589   -9.15955378578591    3.11413716427651
H          -0.90733311619012   -9.64740148319114    1.66497407262144
H          -2.37912728108156   -9.73108324246305   -0.71652929418910
H          -5.81702372168167   -7.97407217038698   -2.57557121059125
H          -5.04130805225603   -5.72524464383744   -1.94743366504457
H          -5.61347506322940  -10.26203175709779   -2.62714262409703
H          -3.00096003248742  -11.51543278463210   -1.63967293173837
H          -6.48886217533874  -12.25532689377687   -3.29285157066131
H          -7.39400705688268  -18.10160360089088   -5.07502050259208
H          -3.41199059415841  -20.35302973327935   -4.01612168279039
H          -7.25676263239640  -22.94470796552418   -6.13806751804897
H          -2.07189045260116  -26.07819701594262   -4.76861366259340
H          -3.87475542927912  -27.60935776763084   -5.80412875292153
H          -1.76138266931743  -21.68581508488682   -3.65315339786923
H          -0.82915488100484  -24.57392143524329   -4.00355961287587
H           0.46071464831252  -21.97354983859856   -3.03963942387196
H           3.04426689886930  -27.72808177881471   -2.62457005693073
H           5.49927781572628  -27.80298835771838   -2.52854027987868
H           6.81380307822741  -25.73084294865951   -2.40705967612708
H           5.70990457208242  -23.54021863801515   -2.39365435625567
