94
 SCF done       -169.229187653025          0.000528864339
C          -1.85450871378442   -1.02699876997410   -7.51281333730171
C          -0.74148981830504   -1.46164583593926   -8.21777285558579
C          -0.34010562455453   -2.78839405166313   -8.17234931782922
C          -1.04438839411326   -3.72064691187073   -7.42479479131027
C          -2.15518729161652   -3.29784885584836   -6.71383952368249
C          -2.56223229099930   -1.94517530996394   -6.75365657402682
C          -3.74073697365042   -1.78409273223512   -5.91021040322344
C          -4.45522806712442   -0.62452292568841   -5.75752636526975
C          -4.14716562635894    0.58927520555285   -6.40795952314551
N          -3.95894163034220    1.61206736407881   -6.89439479686754
C          -5.60874145943107   -0.45516799976131   -4.96359205777932
N          -6.55127418582800   -0.22420723921892   -4.34812099035732
C          -3.97644527669620   -3.06892330295337   -5.26072234814272
C          -3.09728125730613   -4.03773266464628   -5.88865537637685
C          -3.22818503400409   -5.40509950041397   -5.85647664620292
C          -4.36531839166503   -6.08567496537422   -5.37778953727639
N          -5.29396361241614   -6.69673098576111   -5.09039414183507
C          -2.29394768118143   -6.30088925415472   -6.41012578212250
N          -1.54515622467039   -7.08331922027860   -6.79343349495787
C          -4.83384291857531   -3.24776241562976   -4.20445469817616
C          -4.94379483199595   -4.32161300306933   -3.27479665528339
C          -6.22944656016263   -4.62891218735630   -2.81787881361310
C          -6.48760643425367   -5.71277649981860   -2.00360491683675
C          -5.46471050226077   -6.51704809747156   -1.49902948301750
C          -4.13970078339108   -6.29430498156655   -1.97571895632242
C          -3.07206562230408   -7.19141768674485   -1.84312351826531
Si         -1.63067348259318   -6.12237136324601   -2.04974070503745
C          -2.51204185684112   -4.99167471452784   -3.16893627728239
C          -3.85624467664538   -5.13229786814082   -2.81958029830848
C          -5.80833955655276   -7.52785686015370   -0.54831124648236
C          -5.12369545699784   -7.89993063882138    0.57437482236171
C          -5.52076845640486   -8.91945271574995    1.48276547150468
C          -4.72256964051419   -9.04819543516877    2.57494453691352
C          -3.65614063878015   -8.11936359924719    2.61842249854048
S          -3.68844971814935   -7.08978287579951    1.20045786437520
C          -2.69358721671860   -7.97801284507967    3.59521906791107
C          -2.51584387026300   -8.75781467738197    4.76210208134580
C          -1.46164690838854   -8.37070467839802    5.52741684317928
C          -0.75178986961756   -7.24201424848410    5.03342579624738
S          -1.47983774947925   -6.71587982963123    3.51708949990731
C           0.38291870183261   -6.71852648841042    5.58842534114199
C           1.14999270893402   -5.59426494756545    5.15514817053890
C           2.54136218532835   -5.67740941439226    5.24156720770348
C           3.36509230835741   -4.70059015646081    4.72209648184754
C           2.86941971470000   -3.51797820799680    4.16191278480614
C           1.45014373052693   -3.35945765591306    4.07488490820706
C           0.76794048488323   -2.25537699485440    3.56126655175943
Si         -0.97021613866668   -2.78678150596593    3.48719619351416
C          -0.75377143057922   -3.99482143350932    4.81300976957912
C           0.58215296088676   -4.38479625808779    4.65689300827538
C           3.83144013983142   -2.54350520418845    3.77163988741061
C           3.76922066395811   -1.17218474764988    3.78031821815521
C           4.68138662575044   -0.31211942230436    3.03458741731909
C           5.84194677564690   -0.67184442289003    2.40028577430049
C           6.41731945606646   -1.95953964472576    2.38059144287205
N           6.96105018823518   -2.96941298924020    2.30898358887435
C           6.66142706383807    0.22108603022095    1.67749112262310
N           7.37580957299439    0.88287083892399    1.06913261780476
C           4.11119183988325    1.02982059383426    3.05488225569143
C           2.95447217709381    1.02075266059226    3.86661951558150
C           2.20929537709421    2.17450607263205    4.04426060423263
C           2.62116968180089    3.33574202828172    3.40710837423214
C           3.76027910996643    3.34867796616583    2.61621108962022
C           4.51667294729690    2.20009391683905    2.43346700912015
C           2.79681245756127   -0.31211939218813    4.42745094664640
C           1.99229441046734   -0.64088195583871    5.49228425772840
C           0.99678359203913    0.20313375058778    6.01929967934145
N           0.13348899999478    0.82205409445661    6.45697405425857
C           2.13844195244421   -1.80740044557499    6.26873383638291
N           2.26459567042920   -2.68924565077097    6.99313208807483
H          -2.15051343883209    0.00771440655979   -7.56169557672030
H          -0.18160573856160   -0.75322866737441   -8.80897617301297
H           0.53119457340856   -3.10333346578645   -8.72617018907100
H          -0.72212349340968   -4.74873363414568   -7.39681233219764
H          -5.55270278925406   -2.45527669290736   -4.03892334185611
H          -7.05643496590029   -4.03039184714160   -3.17153940436995
H          -7.50572747594505   -5.91682033572975   -1.70635121928361
H          -3.18410744778579   -8.08523268277034   -1.25255536117299
H          -2.15474648505617   -4.08810419604931   -3.63785388507038
H          -6.78519779435533   -7.98064357229395   -0.67209005114468
H          -6.38280530558891   -9.53131965852429    1.28387674422134
H          -4.87454776748393   -9.77373845845471    3.35342205049785
H          -3.16294921998329   -9.58354557794029    4.99647308676450
H          -1.16943751134149   -8.84833985100124    6.44585953949982
H           0.81438856887898   -7.29849753441077    6.39615203781997
H           2.98383808206998   -6.55722458119886    5.68517757345013
H           4.43569045550976   -4.81880126969471    4.80626028800991
H           1.27868430505286   -1.52372245906762    2.95490768071746
H          -1.47004186898480   -4.67170246070924    5.24748453345119
H           4.76039076437786   -2.97091104704455    3.41582232373558
H           1.32201731169425    2.17702907465571    4.65609647103567
H           2.04563646541827    4.24036940118356    3.53159652649840
H           4.06584063262809    4.26410262254291    2.13300897610173
H           5.39888051971414    2.23104665109069    1.81595045409529
