102
 SCF done       -181.456097425143          0.000823939078
C           0.81702697415591   -0.38718900057340    4.73058052488631
C           1.88251918516897   -1.14448994584959    5.19917868091444
C           2.19964227836882   -2.36848499080021    4.62991139236767
C           1.46170394110462   -2.86313319389072    3.56424339731432
C           0.39648595306504   -2.11792486740346    3.08941856228496
C           0.06434413966148   -0.87734308037730    3.67626089722708
C          -1.11316594565001   -0.33893867484315    2.99927780365387
C          -1.69546392394133    0.87654308910352    3.25884741204851
C          -1.20236052176990    1.80461096674119    4.19828083636411
N          -0.85680539141268    2.60801580162300    4.94235335699931
C          -2.84365777684065    1.38738189495935    2.62111485281517
N          -3.77731366283206    1.86621636054064    2.15316162694557
C          -1.55628251744177   -1.34716517163651    2.05510685000302
C          -0.52415404473166   -2.35905815791810    1.98858701712312
C          -0.27045160219799   -3.19138532209349    0.92111111651144
C          -1.00534908139501   -3.18081077602135   -0.28078030753863
N          -1.55236237910246   -3.17969790174178   -1.29090764990992
C           0.81570099008064   -4.07620496203343    0.86368268024986
N           1.67906549437654   -4.82952921686728    0.76170624263794
C          -2.77446166921934   -1.34882804669027    1.39848685326008
C          -3.48432759986224   -2.46641530257521    0.95294738008393
C          -4.59143719938790   -2.47096354989957    0.10129477634624
C          -5.11525908999911   -3.73649537536793   -0.09500129844943
C          -4.42527994835692   -4.73192458916431    0.65329575579093
S          -3.13571252011975   -4.09722520137367    1.56693648038730
C          -5.01072945023141   -5.96820913404156    0.41483908467700
C          -6.08609171678798   -5.80675139070869   -0.49722716246756
C          -6.17382337260659   -4.38862947114603   -0.84019878491696
C          -7.07090571639279   -3.80944555386893   -1.69291262601760
C          -8.05508876138663   -4.56523756973477   -2.36077447263212
N          -8.85750219254463   -5.18229134270919   -2.90079776933538
C          -7.07605428101487   -2.42430267394129   -1.95606607570377
N          -7.09330496901889   -1.29835384884264   -2.17256058105608
C          -6.71981012387935   -6.99735058515075   -0.78858388684864
C          -6.15479228324561   -8.09299952501060   -0.10781648338955
S          -4.80288679907120   -7.59437167998413    0.90258680908930
C          -6.56606451602604   -9.42424245196705   -0.16340489848809
C          -6.00037867440971  -10.47220438420773    0.54244004275590
C          -6.40038671875629  -11.82771594876737    0.55969352885545
C          -5.66437549259285  -12.62557848274001    1.39487845214339
C          -4.64229336578573  -11.94189215324615    2.07710629299411
S          -4.63610000800509  -10.25830635629097    1.60783581530766
C          -3.70958084970044  -12.34584492236011    3.02113424037214
C          -3.49356516731877  -13.60930201303543    3.60732054707904
C          -2.49501680855362  -13.59484329219569    4.53249483175350
C          -1.86891604033198  -12.32821269919671    4.72505177887488
S          -2.61732580556610  -11.14386966245766    3.68351622670584
C          -0.82461272312103  -12.14194280792740    5.59267086472709
C          -0.02263018178195  -11.01131737932393    5.91289078738033
C           1.05699035056232  -11.20712272144389    6.78209021014209
C           1.94877891225349  -10.19996091087497    7.11811726121400
C           1.81174244346914   -8.92400185193470    6.60559741524409
C           0.69334084449564   -8.65437123061917    5.77630877796224
C          -0.21792860415560   -9.68378334829390    5.42050791057585
N          -1.26856589875541   -9.38213606078160    4.64280545561648
C          -1.44008821372642   -8.15465287597893    4.21196127758031
C          -0.52407096741743   -7.12974515330806    4.58115650561432
N           0.49192925266153   -7.39226604033679    5.35571868514527
C          -0.68311197831078   -5.72030287043583    4.11662523031577
C          -2.61194297163680   -7.85766537526301    3.34505004259789
C           2.75901941255362   -7.84037914464044    6.85593439969196
C           3.15452182509926   -7.47637240620131    8.12322263630919
C           3.97602773157070   -6.36201371258610    8.33540775536192
C           4.39675162690973   -5.58711176268159    7.28722004870646
C           4.04502094533411   -5.94755092871268    5.97409093452142
C           3.25467023996449   -7.10230776068536    5.74818957336676
N           3.02240993301055   -7.52542387860063    4.49037583970266
C           3.47040340355103   -6.81930075638413    3.48927170719821
C           4.16399320732043   -5.58686353779122    3.71553553223260
N           4.44890458749396   -5.19278044053988    4.92722763519965
C           4.61709760452745   -4.73834526141727    2.57664413265723
C           3.24578415831788   -7.34311655340884    2.11421604127144
H           0.58914228309307    0.56085211229033    5.18912276853372
H           2.47062693263225   -0.77084799406995    6.02346808686604
H           3.02649524084081   -2.94759353439379    5.01367514884512
H           1.71323595045049   -3.81750880110322    3.13193246257849
H          -3.29227743289269   -0.40593515816179    1.28209919844633
H          -4.95347848167503   -1.56940802946621   -0.35990577684513
H          -7.55572432837270   -7.11153950884461   -1.45510094987199
H          -7.40787627304677   -9.65013194427126   -0.80379633319205
H          -7.22508302129977  -12.17624379859916   -0.03674981469187
H          -5.84039622518995  -13.67760704849243    1.53350770300689
H          -4.06598785573186  -14.48079281931815    3.34161325159139
H          -2.17670455746412  -14.45927847895792    5.08958647087595
H          -0.53237777353012  -13.04298150283764    6.12345584924686
H           1.21669751022893  -12.19587927443136    7.18857985109106
H           2.78450470438393  -10.42436833068526    7.76483930483877
H          -0.65967124200416   -5.67924530190719    3.02859607790706
H           0.12824613096277   -5.12220279816661    4.52203525968336
H          -1.63235875906639   -5.30340835357800    4.44996655097276
H          -3.02090033204246   -6.87477977298754    3.56287957947806
H          -3.37913551998043   -8.61170772197573    3.47974373691821
H          -2.30189317038270   -7.86912743319459    2.30049140217463
H           2.79086735206802   -8.03605236141906    8.97305010501873
H           4.25526516392123   -6.10228376253520    9.34584897210576
H           4.99624209977693   -4.70266602623170    7.43678855079711
H           3.80100190749030   -4.56147747693172    1.87861645372313
H           5.41205078929342   -5.24709461214968    2.03203244851921
H           4.99723341260016   -3.79222806152681    2.95173359770650
H           4.19446288611053   -7.46222290694467    1.59347864895345
H           2.63729795778548   -6.64563630354005    1.54039296305457
H           2.73994874123354   -8.30299386992416    2.17217162228434
