104
 SCF done       -213.511912311838          0.000613486273
C          -6.13783869914542    0.38699486608632    7.01289024684337
C          -6.34578771355235   -0.21077610365284    8.24705334614150
C          -6.03797687842620   -1.54754331161848    8.45815210865722
C          -5.50354805687801   -2.32437417849785    7.44146723319276
C          -5.29012694847484   -1.73736880815992    6.20544476550177
C          -5.61258551644772   -0.37903054470676    5.98384163494013
C          -5.30867332640017   -0.03956173718100    4.59927664345742
C          -5.38155840393908    1.20887112584957    4.04382759033410
C          -5.75629241741314    2.36981679485014    4.75460925291040
N          -6.05134116499357    3.35154124749514    5.27027727889581
C          -5.06384504367156    1.53007821370946    2.70681269415137
N          -4.82433022126856    1.86331865744965    1.63457674933770
C          -4.93651817012364   -1.28531683942802    3.93490171854503
C          -4.71705463281585   -2.27623764854949    4.98337694870310
C          -3.87152209633342   -3.35085797520639    4.91067244775805
C          -3.09077956857963   -3.66277448292994    3.77796068378757
N          -2.41157151404814   -3.92752114446913    2.89113515498843
C          -3.61205698128442   -4.22166389146832    5.98933398849983
N          -3.37717058504774   -4.97287321693143    6.82440381851710
C          -4.90409855408114   -1.46816477442614    2.58128514502262
C          -4.98189233745056   -2.68172450452218    1.86069899716137
C          -4.57219185953518   -2.86541662152658    0.54785709493304
C          -4.81707613174887   -4.15562867432115    0.09341211078054
C          -5.47305587856555   -4.95701826306531    1.05116035571859
S          -5.75481148772542   -4.13106530243879    2.51137404051151
C          -5.68611277651070   -6.24090702684636    0.50056221728789
C          -5.14877871091388   -6.26533712545218   -0.79935321820361
C          -4.59137822923600   -4.95341639572811   -1.09965956194765
C          -3.98784707185775   -4.56430556573233   -2.25790563597077
C          -3.82792175352913   -5.44732610753733   -3.34749074641970
N          -3.70420251084495   -6.16650187547955   -4.23157364443694
C          -3.49378839925534   -3.25565805068070   -2.45012177032358
N          -3.09588390162792   -2.19427263053984   -2.61771897693627
C          -5.29355376804272   -7.50179807098703   -1.42223736011195
C          -5.94607362663889   -8.41600149305370   -0.61099156472625
S          -6.38158686855844   -7.73705317386251    0.94820988425017
C          -6.26543377820740   -9.76201419470496   -0.91681978947406
C          -7.01278229762911  -10.64546968643072   -0.15749264096108
C          -7.12872528589763  -11.89040085034701   -0.77230915619567
C          -6.45393539969628  -11.95717667341716   -2.00480554237784
S          -5.69106535919655  -10.48599405798682   -2.41270353061776
C          -6.62563430839446  -13.25616282631184   -2.54418776890899
C          -7.41857013037532  -14.00849347714280   -1.65903085660773
C          -7.75968773861180  -13.17589778356177   -0.51584990953601
C          -8.51238429788379  -13.52554926609556    0.56567810487040
C          -9.07439461720108  -14.81307856790546    0.70085819056365
N          -9.52933298863446  -15.85964298529719    0.80900743474667
C          -8.77682603993843  -12.62125210268005    1.61641574501320
N          -8.99178522565544  -11.88283878329915    2.46651752225237
C          -7.64838880742458  -15.30777396395371   -2.10749259547501
C          -7.02845353193401  -15.55260462290607   -3.32023172236410
S          -6.15265408375903  -14.15063974988858   -3.91885675557637
C          -7.04024437070122  -16.75563595996022   -4.06944134723505
C          -6.33414912043574  -17.03125141638520   -5.22824651250417
C          -6.58384643399998  -18.31991964073437   -5.69373794516686
C          -7.49556815521693  -19.02770233472141   -4.88853310273426
S          -8.03280789954555  -18.10913308359018   -3.55228245616952
C          -7.69809801627020  -20.31136213812606   -5.45038969566508
C          -6.89859736423387  -20.41817466336227   -6.60877075969408
C          -6.18007604931009  -19.17106944374481   -6.80190245104159
C          -5.33517238405816  -18.86373392054618   -7.82733849410056
C          -5.05757553015195  -19.79497881204368   -8.85066749365772
N          -4.84446503252794  -20.56816230448445   -9.67009754864709
C          -4.69516674980991  -17.61011730253744   -7.92220139492008
N          -4.17319153104416  -16.59165744371292   -7.98751489536518
C          -7.04723062115940  -21.63406473729876   -7.25896451655249
C          -7.96650692257578  -22.45982307560720   -6.62497295281228
S          -8.61351123687527  -21.71511966931126   -5.16521510440641
C          -8.38429892709646  -23.76739639904659   -6.95557527360392
C          -8.27683778130648  -24.40642640287544   -8.15854946313698
C          -8.34921055186831  -25.85768626152027   -8.31745711287773
C          -8.89707363034677  -26.76156558381728   -7.44861047022880
C          -9.54207841213502  -26.44252674371496   -6.23451804370094
N         -10.08414103867650  -26.25380985326259   -5.24010471918734
C          -8.93616938559481  -28.15394689843278   -7.67979045947439
N          -9.00319711241012  -29.29264438189428   -7.80399907658884
C          -7.73269782672113  -26.16886267702616   -9.59995370652022
C          -7.46561343816179  -24.96075845500105  -10.28320017074451
C          -6.84843057818575  -24.96891614914318  -11.52290844045617
C          -6.50626958432338  -26.19146181100650  -12.08110930381096
C          -6.78040007613055  -27.38026378907673  -11.41915346287518
C          -7.39360963447999  -27.38361437791905  -10.17508177713257
C          -7.95417423758040  -23.85640318673088   -9.47256474985663
C          -8.30183380941733  -22.62306711934413   -9.95252696124092
C          -8.08114650782016  -22.20676404448212  -11.28359910231920
N          -7.93296354083713  -21.81283646165290  -12.35047415932629
C          -9.00824157194342  -21.65126751512626   -9.21514266227157
N          -9.61165401890252  -20.83933292517206   -8.67226088134375
H          -6.38768635844717    1.42498068659328    6.86806267352060
H          -6.75738807670739    0.37589593660440    9.05392024634510
H          -6.21659520756813   -1.99116413807177    9.42554408196002
H          -5.27433185568195   -3.36376854912537    7.61244959818726
H          -4.88214551360290   -0.58687741837717    1.95283634721996
H          -4.08621133653254   -2.08962934000782   -0.01602410504740
H          -4.95247195861546   -7.74279052598296   -2.41308010884382
H          -7.44656259203474  -10.37697593928539    0.78908465330082
H          -8.22877699456430  -16.05031067349889   -1.58978599840771
H          -5.67437855267801  -16.32045916284804   -5.69285869829018
H          -6.48949024966785  -21.93189368264597   -8.12811587468120
H          -8.78403729892238  -24.33460232676187   -6.12543682903978
H          -6.62054249101909  -24.05058555166539  -12.03925988631903
H          -6.01768656200604  -26.21572009033297  -13.04295751648801
H          -6.50746815858104  -28.31989907962690  -11.87443386851364
H          -7.58969201539806  -28.31619893715368   -9.67219644795390
