94
 SCF done       -189.948721116442          0.000980118087
C          -6.61421667315284    3.47576826344298    0.76516539985076
C          -7.30931596330883    3.86349782976424    1.90097690816067
C          -7.48177538229733    2.99374337401628    2.96893341782829
C          -6.95361574562372    1.71181328869566    2.93744064848684
C          -6.25383882265534    1.31562810526474    1.80996728007007
C          -6.08862946358090    2.19400678111101    0.71493887926422
C          -5.35057144499857    1.50474447021022   -0.33454515583218
C          -4.86332951565682    2.07181409934089   -1.48028961475819
C          -5.01523534576970    3.43595575656476   -1.81201712641619
N          -5.10242841804570    4.53058603639866   -2.14464870870268
C          -4.10639911941322    1.40446616290714   -2.46703329970776
N          -3.48142244159131    0.92691047018885   -3.30343055099175
C          -5.23456239238738    0.10826402058988    0.08300591286658
C          -5.58092981173848    0.06389188783827    1.50132281671865
C          -5.12311495300315   -0.83423786433455    2.42611025613099
C          -4.26060633577460   -1.90870356516089    2.12774021245666
N          -3.53509188821788   -2.77807038230480    1.93991060625363
C          -5.37797527585629   -0.73382829052365    3.81141051517766
N          -5.54543801836289   -0.69957176359800    4.94532833186006
C          -4.96881597862998   -0.92032384748443   -0.77527165829195
C          -5.21804282671882   -2.29847444152595   -0.58996368271655
C          -6.08550537869551   -2.93359945794842    0.28919747613521
C          -6.08818338679267   -4.31061984288033    0.12057201773278
C          -5.22423395660640   -4.73951127289031   -0.90734600712294
S          -4.42288339824934   -3.44460395125188   -1.66322227712634
C          -5.31031930173389   -6.15139353110717   -0.99669025875759
C          -6.21732430687133   -6.61552160004828   -0.02556920702388
C          -6.72488532000083   -5.47398821420024    0.71829943847688
C          -7.59074356550002   -5.47209466526690    1.77122770592535
C          -8.15872516369714   -6.65334337776096    2.29522300470252
N          -8.63180839756663   -7.60549646450067    2.72227466160307
C          -7.96923045585912   -4.26613851899587    2.39977162474728
N          -8.26762731950232   -3.27363027177877    2.89026120151689
C          -6.38244428525951   -8.00034741069052   -0.05953299506709
C          -5.61624902208915   -8.58382386887988   -1.04876184714037
S          -4.66509699264608   -7.41320488051826   -1.94237594130720
C          -5.59198656402723   -9.97838978659993   -1.39081791364134
N          -6.36690802846070  -10.78070128745778   -0.65012222064300
N          -6.46710798505657  -12.03051568506572   -0.90575482281249
C          -5.80059947588675  -12.58860084680825   -1.92408295074497
C          -4.92957556739888  -11.82769736415376   -2.72786952426405
C          -4.82254647209340  -10.48909288102753   -2.45431482090606
C          -6.04665937929144  -13.98532115949057   -2.15058756149761
C          -6.82463703630055  -14.81489950214832   -1.36812437355925
C          -6.90426801218060  -16.10258048385002   -1.89904201428705
C          -6.18055478434647  -16.24297934550329   -3.09807091892662
S          -5.39408107890916  -14.80310082758101   -3.55735882704616
C          -6.34617184211069  -17.56460369613090   -3.58259144408662
C          -7.17842380258425  -18.26137078557115   -2.68323687985926
C          -7.53806572753302  -17.37368437809585   -1.58832861107619
C          -8.28354851543755  -17.69786182659969   -0.49400782311496
C          -8.80674193383602  -18.99854276833862   -0.32924481698729
N          -9.22541286011403  -20.06033818769236   -0.21897928306716
C          -8.57308338032367  -16.77449977536091    0.53366430263095
N          -8.81777345281895  -16.03151920087113    1.37084998091974
C          -7.41196877332843  -19.57319256996707   -3.06947239806671
C          -6.76175687769935  -19.89539992245008   -4.25360975480173
S          -5.87090360420409  -18.52426856630750   -4.90310566020693
C          -6.79649976769728  -21.09551615197162   -4.99873597804087
C          -7.14828260170380  -22.34114628622023   -4.56266374721176
C          -7.58276372028381  -23.42266686716933   -5.44494547627689
C          -7.37945047528970  -23.52619449486957   -6.79404472161088
C          -6.65991110139198  -22.60748391468856   -7.58772359722566
N          -6.08340840716094  -21.90649242626683   -8.29107685721650
C          -7.83265145370779  -24.60815476814939   -7.58013699575044
N          -8.17330545526785  -25.45192342895582   -8.27905176349778
C          -8.28678374953708  -24.38585818136558   -4.60939218709629
C          -8.13769987498989  -24.01156879195619   -3.25452180327001
C          -8.73989444138131  -24.74489738307622   -2.24575615986903
C          -9.48613547526099  -25.85990114803530   -2.59648954830773
C          -9.62301269299699  -26.23818782155924   -3.92497882069977
C          -9.02845693697529  -25.50840420894284   -4.94355365831563
C          -7.29253962992287  -22.82999309538833   -3.19375855922361
C          -6.56012741066162  -22.43938673526419   -2.10620212707268
C          -6.64583824266135  -23.05547973161646   -0.83852211393142
N          -6.66338379292464  -23.52281514511438    0.20854634334591
C          -5.56138387464677  -21.44480264271768   -2.13603479937481
N          -4.71569168026416  -20.66882855519107   -2.11542913693607
H          -6.49904460131009    4.16164053907063   -0.05785553049584
H          -7.72744567969609    4.85724478150453    1.94901179853697
H          -8.03682914644364    3.31613536273164    3.83633263114375
H          -7.10331158420204    1.03940066648787    3.76648291529406
H          -4.58174164902619   -0.66362402234786   -1.75251320647665
H          -6.71491584208249   -2.40384656058116    0.98062051810935
H          -7.02169698969737   -8.58314787126927    0.57795159134139
H          -4.37259156738095  -12.29327595059896   -3.52772432356108
H          -4.17826440708120   -9.83904054383756   -3.02800659668408
H          -7.29870943624989  -14.46426574114381   -0.46981376692373
H          -8.05950815592954  -20.25574306238603   -2.54991168737063
H          -6.58121598071480  -20.97740453005300   -6.05237725900309
H          -8.64962382938047  -24.45172071912535   -1.21245946433679
H          -9.96848696312987  -26.43828039225811   -1.82369382525107
H         -10.20672729117001  -27.11109497974560   -4.17395381201906
H          -9.15418486840474  -25.81243741300257   -5.96957992202122
