122
 SCF done       -244.620374140084          0.000577321825
C          -2.23102900700924    2.80862584827072    1.37354917294122
C          -2.36277181470826    3.65056835878408    0.27919644225950
C          -3.18686922977390    3.31824279521346   -0.78696449132752
C          -3.91424961668681    2.13747081467680   -0.78492004734136
C          -3.79400042172978    1.29180220599329    0.30505201791314
C          -2.94416199854741    1.62006907570605    1.38547558661750
C          -2.98615963992884    0.54015270503741    2.36249196282429
C          -2.41128987881105    0.55900729225154    3.60454599373100
C          -1.68514548349556    1.65373339232927    4.12162568506734
N          -1.08387718443820    2.50365381551493    4.60434034147813
C          -2.49252836316438   -0.47414082397995    4.56220977295391
N          -2.52161676531227   -1.26954837448682    5.38992043261332
C          -3.75449116566186   -0.54437318367797    1.75642260435638
C          -4.43643975415119    0.01971724967974    0.59560262248519
C          -5.62082814610081   -0.40406056420778    0.05618016055710
C          -6.35975031485116   -1.50827284343360    0.52686054677130
N          -7.01690339007649   -2.37707393989401    0.88937911111143
C          -6.30122034738477    0.27474396099048   -0.97789336617001
N          -6.90457927515881    0.78569134583414   -1.80905778553430
C          -3.70661793396689   -1.84289473112389    2.18251308483029
C          -4.06236673171431   -3.00470906409130    1.46553329656705
C          -4.19259938505923   -3.19684516526057    0.09560653734545
C          -4.51366520678356   -4.50743000339517   -0.22243118158619
C          -4.62117904225720   -5.33960118838764    0.91257358149495
S          -4.31064684107349   -4.50301179521530    2.35905683526387
C          -4.96036612800265   -6.64336506798400    0.47575096389379
C          -5.07478397162184   -6.63589297762302   -0.92613614012698
C          -4.80650605655348   -5.29152740651082   -1.41008263213488
C          -4.84465151263209   -4.84174052451970   -2.69704195836264
C          -5.14693523103421   -5.68869457038720   -3.78411427288205
N          -5.38511871324899   -6.38105035166264   -4.66614355732400
C          -4.57759155308598   -3.49138059092382   -3.00784710008632
N          -4.35261860577991   -2.39113152197812   -3.23955539394514
C          -5.39990633239366   -7.88583434439777   -1.45101958120533
C          -5.52791569413782   -8.84306092725929   -0.46199123299995
S          -5.25155901245254   -8.18886766319533    1.14283005543918
C          -5.81372060344024  -10.22384815310744   -0.63664606153024
C          -5.89246814408969  -11.19213410666407    0.32560469025994
C          -6.14513428201853  -12.48347002358918   -0.19074201880553
C          -6.28792101572949  -13.69120244158707    0.52440401938405
C          -6.10442760059585  -13.74228526739212    1.96026427943806
C          -5.14542865343995  -13.12371810692973    2.71068131272730
C          -5.26920720284689  -13.40320408965789    4.08872395866130
C          -6.31330111763149  -14.22315334727448    4.40700198635656
S          -7.16951662593433  -14.67804791491349    2.97360299588288
C          -6.73811937558889  -14.71636523585182    5.74047053767656
Cl         -4.18263000329433  -12.75262109421086    5.25661090529417
C          -6.58638888536344  -14.82249224231298   -0.22478771263881
C          -6.73522501491164  -14.80676808675452   -1.63451760722549
C          -6.61063723591770  -13.59573840207754   -2.34825273283534
C          -6.29203881473440  -12.46830836891986   -1.60121109774885
S          -6.07603428074953  -10.86473842678923   -2.24520228062478
C          -6.82114660035907  -13.54723359354079   -3.77964996364194
C          -7.78099425210559  -14.19274723695276   -4.50701053050078
C          -7.69917077575398  -13.91103635343682   -5.88740057977868
C          -6.68633770020757  -13.06236857532816   -6.23103944478795
S          -5.80790193709111  -12.58299394713051   -4.81905563999394
C          -6.31124028584901  -12.55516307898784   -7.57406438749604
Cl         -8.79482674447142  -14.59255727894043   -7.02867994590314
C          -6.93363297286571  -16.10496233210558   -2.15647829789613
C          -6.95410272042648  -17.08253620613781   -1.20045977695347
S          -6.73730656966273  -16.43677801077989    0.41269895982613
C          -7.10419173512898  -18.48185818892118   -1.39542844537933
C          -7.05354565312170  -19.47292895154896   -0.43320102855377
C          -7.20785064094482  -20.74339719752922   -0.98671060768411
C          -7.38531753453911  -20.71486981534415   -2.38168994859596
S          -7.36046304094852  -19.12600801667070   -3.00778492833334
C          -7.52291485160290  -22.04344855554868   -2.85168123302243
C          -7.42229788436226  -22.91582629599403   -1.74670770487760
C          -7.23495533996181  -22.12701738051827   -0.54078124635407
C          -7.13710371004509  -22.59735851232020    0.73559264623729
C          -7.20030891656462  -23.97972906203967    1.01205978190856
N          -7.24832292096062  -25.10747467936098    1.21412006102799
C          -6.96722982239153  -21.74158925184313    1.84426832147176
N          -6.82294769434503  -21.04617109802108    2.74405878538311
C          -7.55459297520778  -24.25065341568927   -2.09723557133088
C          -7.76955059533862  -24.41797071579219   -3.45980784397632
S          -7.76625371004935  -22.87595156127172   -4.31302328228336
C          -7.91125193400433  -25.60116566071351   -4.21460297410134
C          -8.22353590354475  -26.85573826278463   -3.76908865794224
C          -7.93511647565658  -28.07746282984018   -4.51633749832448
C          -7.67523522078012  -28.19173648092922   -5.85533839190212
C          -7.67897377616296  -27.13105499415348   -6.78602069971774
N          -7.66711400609857  -26.31927032545941   -7.59819229402703
C          -7.40960417079632  -29.41611105741110   -6.50609794252620
N          -7.18824798013530  -30.37305131824533   -7.09954448440302
C          -7.97932013891704  -29.17413893691375   -3.55838811021323
C          -8.44914706400911  -28.68034675374289   -2.32036884706278
C          -8.55657747400654  -29.51355753824888   -1.21953132406808
C          -8.19964860097685  -30.84595075570796   -1.36346551001652
C          -7.75180619918268  -31.33724511665099   -2.58178530190944
C          -7.63571960657278  -30.51058506276048   -3.68945975976787
C          -8.76461563861096  -27.26918418778918   -2.47810585040319
C          -9.63952802505423  -26.56691493801686   -1.69408147269008
C         -10.23680501175159  -27.08466698122940   -0.52433210056800
N         -10.75941909724452  -27.45234500021153    0.42826843019779
C         -10.13155632754026  -25.28309431730007   -2.00464519280118
N         -10.58714565389054  -24.25278154304480   -2.22572737582007
H          -1.57892225539750    3.07958249975670    2.18739104194058
H          -1.80835196387384    4.57624474552979    0.25703671665806
H          -3.26266511517846    3.98499160355941   -1.63207262110447
H          -4.54234115129678    1.88226672677022   -1.62291512074331
H          -3.28689504355377   -2.02985034420700    3.16200098155709
H          -4.01425504098468   -2.42117913444195   -0.62672299875694
H          -5.53393765475494   -8.10884255429201   -2.49430931720434
H          -5.79047211055204  -10.97700590077064    1.37364966924166
H          -4.34828595705482  -12.53067015015954    2.30213912239838
H          -6.08694803299311  -14.30681350239506    6.50852245228609
H          -6.69044384820833  -15.80419437400246    5.77838018949391
H          -7.76499616168638  -14.41943933137904    5.95064108942842
H          -8.55112420023297  -14.80714277896204   -4.07871374242822
H          -6.94386085592175  -13.01370247649615   -8.32984191459637
H          -5.26959159799780  -12.78470024856860   -7.79465083419762
H          -6.43209960248277  -11.47317878189945   -7.62088701836246
H          -7.01968781124912  -16.31996272407051   -3.20607613303505
H          -6.90564987438360  -19.26056674384082    0.61043648119464
H          -7.45515068683811  -25.07261127088908   -1.41192625318892
H          -7.67612085734612  -25.49272395483023   -5.26512226599049
H          -8.89196257215836  -29.13867690919381   -0.26620203165084
H          -8.26970646724839  -31.50730033356387   -0.51363293158931
H          -7.48227264170461  -32.37846484919775   -2.67102786578023
H          -7.27713400246711  -30.90831376824539   -4.62446272794260
