104
 SCF done       -212.154875407778          0.000457924465
C          -3.16560021199981    2.97315975683758    3.02591211336212
C          -2.95501312806197    3.93155532538879    2.04569050873493
C          -3.40336568024308    3.73970116324691    0.74625348975275
C          -4.08762075889023    2.58701110593144    0.39119124666448
C          -4.30895948749435    1.62600645305097    1.36360000169430
C          -3.84001324742458    1.81132961758669    2.68398166153840
C          -4.18057863752276    0.63619096429490    3.47478448311587
C          -4.00979924769140    0.50121717718788    4.82607994228045
C          -3.47347166996022    1.50740295836362    5.65882497948272
N          -3.04783083143988    2.27879861366976    6.39406094513681
C          -4.37573284470331   -0.62637555436483    5.59159253913212
N          -4.64952223713468   -1.50681417549144    6.27599330145656
C          -4.72879339577702   -0.35003928653371    2.54711561496085
C          -5.00918509837280    0.35326352691962    1.29849452640737
C          -5.96271495921843    0.02870206300884    0.37169133703676
C          -6.82220703802658   -1.08509252402976    0.46127288614033
N          -7.57663079341647   -1.94988432427928    0.49742918026388
C          -6.27570131113786    0.82811363896345   -0.74908162541113
N          -6.57908634393214    1.43161479782384   -1.67625367470902
C          -4.83987832980865   -1.68427584246491    2.82287423417782
C          -4.97828461687094   -2.74373619042649    1.89979447613319
C          -4.63188164330939   -2.79320242621312    0.55543620320993
C          -4.90687559660351   -4.02860457883984   -0.01150508171750
C          -5.46467248277386   -4.94353609070143    0.90858852218098
S          -5.61640292686171   -4.28369744934046    2.46798565860153
C          -5.74743048368233   -6.14676397428153    0.22183212381869
C          -5.37079767273731   -5.99864180454311   -1.12716077447093
C          -4.83562859361554   -4.65930049323288   -1.31720384355354
C          -4.39890226562112   -4.09201765168381   -2.47841962449811
C          -4.38533195303744   -4.79767193960221   -3.69958949812334
N          -4.37027121833012   -5.37933890012834   -4.68733906944188
C          -3.93983276761797   -2.75829885073259   -2.51463770028200
N          -3.57016545512803   -1.67288952041490   -2.52243975561502
C          -5.63298666980879   -7.13151197042155   -1.89199709596892
C          -6.21062340700695   -8.14081710345043   -1.13799250781296
S          -6.42503363433345   -7.68069330983811    0.54456519435060
C          -6.63422951029729   -9.41634274312882   -1.57986386173004
C          -7.26562720070996  -10.39406061062359   -0.82953380121513
C          -7.57150539464832  -11.51890541197998   -1.58887141846393
C          -7.16270636377747  -11.40247640736715   -2.93580187224589
S          -6.40454417133855   -9.90279716302441   -3.25540966070110
C          -7.52825290992765  -12.57721437134776   -3.62313626031303
C          -8.18080678457803  -13.44205267202257   -2.71387768324900
C          -8.21591424467739  -12.80483143005175   -1.40454543187832
C          -8.73939504616263  -13.31866103404191   -0.25459729000921
C          -9.33773029281310  -14.59656323520026   -0.21525329958370
N          -9.81532603809162  -15.63843292650222   -0.19416933845639
C          -8.70440790095977  -12.60566135522773    0.96270372370177
N          -8.66655710015990  -12.02022734016080    1.94750766531061
C          -8.60639089197068  -14.62523683545022   -3.28730380988191
C          -8.28644279420943  -14.70268677648358   -4.64511328068259
S          -7.42813223850129  -13.25436405769685   -5.18787201595578
C          -8.54178924014859  -15.72023548262892   -5.57056147241482
C          -9.29535487101405  -16.85847989394655   -5.38150371364009
C          -9.49764902483559  -17.87501564985321   -6.34625797917237
C         -10.30945827553021  -18.89055647928573   -5.93304432978121
C         -10.80164350716604  -18.72323657210828   -4.62177586569011
S         -10.18591031324323  -17.25088100963315   -3.92371796293590
C         -11.66524873379092  -19.54208523921682   -3.90784371829490
C         -12.21881847499068  -20.77862774202193   -4.29503158831550
C         -13.04626228245466  -21.32360885344888   -3.35466103426473
C         -13.18754429071487  -20.53863353312079   -2.18933205398848
S         -12.22897793746326  -19.08756600688951   -2.31759182537343
C         -13.98913319405649  -20.82282989053118   -1.09617528039141
C         -14.09602408537232  -19.98583020962516    0.00568382985795
C         -14.90189332474406  -20.12803293918519    1.11780764048383
C         -14.58495476123146  -19.34696021922933    2.33441124584414
O         -13.79485442312432  -18.43651832274936    2.43468563087660
C         -15.41635137545574  -19.94296507503866    3.41063350739507
C         -16.22723147961419  -20.94937359870139    2.85685558146770
C         -17.04365786678349  -21.70638636095489    3.67915651010685
C         -17.07260091129519  -21.43234518979481    5.04599425200094
C         -16.27654357677256  -20.40846722555629    5.58371236443669
C         -15.43468393349985  -19.65609477406676    4.75694253810734
C         -16.31359760144382  -20.08379211315931    6.96356167977898
N         -16.29723170859509  -19.71863197727179    8.04889916375116
C         -17.90174261437414  -22.25699157911373    5.98633431839629
O         -17.57472688971276  -22.45157332921800    7.12224819260183
O         -19.03097787299866  -22.77552951949760    5.48779844654221
C         -16.02213374480685  -20.97674291866081    1.40355547619224
C         -16.91462236919094  -21.53400380423312    0.51507967955638
C         -16.88990900346585  -21.35122628527386   -0.88094594600418
N         -16.95140611838598  -21.21253185717719   -2.01933319603587
C         -18.05568874338449  -22.24859419511871    0.92645815672602
N         -18.99570566617236  -22.83183075359229    1.23689086522145
H          -2.80201037846654    3.13657122377739    4.02690492182097
H          -2.42790050315595    4.83825688139304    2.30012213499746
H          -3.21667034322633    4.49558938046531   -0.00089871566258
H          -4.42158255757128    2.44196010616910   -0.62329944006366
H          -4.76165583959166   -1.99122925384190    3.85722787351464
H          -4.16746104557826   -1.97321081567192    0.03805661336358
H          -5.42847953278050   -7.23318588482761   -2.94288473576582
H          -7.48963318303291  -10.27140453805797    0.21501404875904
H          -9.10937901139334  -15.40783514494327   -2.75265281814069
H          -8.10946292047444  -15.59331857132641   -6.55495268922137
H          -9.03611809481021  -17.82484863504619   -7.31656383270337
H         -10.57191694555267  -19.73947078274382   -6.53768062729358
H         -11.99500065146487  -21.23516323425151   -5.24223738893680
H         -13.56847925993705  -22.25650826426512   -3.46876943008500
H         -14.53615189230761  -21.75321713506942   -1.12869329863425
H         -13.41442782669356  -19.14097391368139    0.05614098251092
H         -17.61516786229834  -22.53011814137380    3.27848297721472
H         -14.81346597636381  -18.87323685947803    5.16467028914854
H         -19.20776244958666  -22.53565663908321    4.56721274887103
