136
 SCF done       -244.985189099357          0.000784976481
C          -3.86615723873737   -0.54973433045274   10.03544108440063
C          -3.99407225886525   -0.96429534014764   11.35223810618710
C          -3.67025453499647   -2.26010475827952   11.73068477950636
C          -3.20206036884135   -3.17825114018872   10.80326207740521
C          -3.07038304836979   -2.77630866641790    9.48406397391519
C          -3.40698210179986   -1.45898786808610    9.09469485406054
C          -3.19192790008665   -1.31936294527066    7.66168693502293
C          -3.25094348220119   -0.15718730633000    6.94344392225714
C          -3.55294315601219    1.10325379894941    7.50248583341264
N          -3.79436811666833    2.15478113888893    7.89354127032845
C          -2.97248119643029   -0.04110682402400    5.56455794441755
N          -2.74570435196386    0.12796212410124    4.45192425809198
C          -2.89529046824551   -2.65804408004024    7.15228258031493
C          -2.59112894275622   -3.49396926053563    8.31417948839857
C          -1.78442042350747   -4.59707166082406    8.32006429980034
C          -1.10484413629706   -5.07753470806614    7.17923828253823
N          -0.46380901222561   -5.45192117497592    6.30448594581628
C          -1.44881503642081   -5.31266512390744    9.48852662798908
N          -1.15482186621102   -5.92427911923385   10.41356299210080
C          -3.02032567743655   -3.04038046956588    5.85601564186649
C          -3.11274026469941   -4.38369326734964    5.34568536435101
C          -3.76864811052661   -5.39986742816893    6.05670650877821
C          -3.89076179699005   -6.67806505455687    5.55327046793119
C          -3.32394435438421   -6.98164571134204    4.31908163925006
C          -2.70006133188210   -5.93946247709855    3.58823153448791
C          -2.60830175992573   -4.65446830060503    4.06579068935426
N          -2.27301227786547   -6.42430268475474    2.37484058740206
C          -1.54778327905198   -5.67620428416643    1.38526582096766
C          -2.61972618490895   -7.74404220223671    2.22473856331975
O          -2.32255518060888   -8.40088352505347    1.24908632123596
C          -3.31378346161906   -8.15865947578176    3.48684002420739
C          -3.76167033429037   -9.43038069902332    3.74484911027303
C          -4.00717790828902   -9.98878986148376    5.11759066598145
O          -3.90157374273627   -9.45824617091187    6.20329588188323
N          -4.32997128216488  -11.31173611718544    4.95743364698226
C          -4.61099413120139  -12.19601448154032    6.05426791512040
C          -4.38440409517629  -11.64780901868978    3.61990521317402
C          -4.02489370988914  -10.51671428557134    2.84221842546830
C          -4.08892248211045  -10.62755914261218    1.45425136202184
C          -4.48002563676704  -11.81803071074371    0.88397800180958
C          -4.81392681672619  -12.94729324377037    1.65300726392191
C          -4.74755603219153  -12.84409125987637    3.05972826444660
C          -5.21766284868698  -14.19534862231298    1.09243224908161
C          -5.60180464878791  -14.49990331417245   -0.18470671884801
C          -5.98807454068459  -15.79989145248437   -0.62181145380058
C          -6.39506248781490  -15.86915396664499   -1.91632051746319
C          -6.36701904218442  -14.62521552655125   -2.58912254181056
S          -5.77809087739607  -13.37248211698785   -1.51937003620192
C          -6.74082455128329  -14.33251123321971   -3.88382726508681
C          -7.22081834326321  -15.20432068492571   -4.88888411878246
C          -7.52269347403863  -14.57858559771241   -6.05662024100559
C          -7.31030622282377  -13.16958565066757   -6.05282558393229
S          -6.67607731071801  -12.69161383523931   -4.48735673170792
C          -7.62034305752183  -12.33915238993877   -7.09512172950353
C          -7.51800784813301  -10.92054010416510   -7.19516969448509
C          -6.82810789210518  -10.11652827174996   -6.27017141562042
C          -6.81743080972915   -8.74213238031153   -6.35171597582354
C          -7.51663112035942   -8.10635635049415   -7.37646221058536
C          -8.14178019127515   -8.91976845338888   -8.35664995710168
C          -8.15294002880488  -10.28763045469652   -8.28645730669551
N          -8.68861654680139   -8.11122326837376   -9.33207980610777
C          -9.40803339532208   -8.56682250409741  -10.48913093522575
C          -8.43283109958442   -6.78964358850860   -9.07467588726485
O          -8.81367353126392   -5.89168924870639   -9.79599574535930
C          -7.69637050572948   -6.73341523838296   -7.76513709274465
C          -7.39139899991080   -5.57891286289516   -7.08742062204133
C          -7.09040524258776   -5.51402825107816   -5.61913939975001
O          -7.02865361581932   -6.40185420529661   -4.79496478981139
N          -6.94901436928788   -4.18720936508521   -5.29803825257164
C          -6.70145396785388   -3.71602732082200   -3.96337128188089
C          -7.10191032935483   -3.39332445412725   -6.40908305881727
C          -7.38539910288697   -4.20697561693688   -7.53461112646860
C          -7.50727458501302   -3.59390050772064   -8.77784716714572
C          -7.44482431742907   -2.21836852831817   -8.86183876477012
C          -7.22057829974612   -1.41747248645287   -7.73290305856994
C          -6.98952878627507   -2.02616185688545   -6.49193906501229
C          -7.15616356189641    0.01890559608312   -7.82946486747889
C          -7.90122512093455    0.81050693800884   -8.64107359517870
C          -7.57815849331261    2.19229790370820   -8.99626127129579
C          -6.75571936723792    3.04744654685366   -8.31662459861810
C          -6.10740358384642    2.74977725923041   -7.09864609520816
N          -5.56358957988032    2.57835432275270   -6.10223017531556
C          -6.48466494129336    4.37228838809423   -8.72130418283834
N          -6.22157097238586    5.45452905666846   -8.99792876080644
C          -8.31419377614684    2.49025598195575  -10.21629937769070
C          -9.19471843878372    1.41929625181399  -10.49557466088847
C         -10.00447647347238    1.44544663990515  -11.61938436605519
C          -9.93262765358289    2.54493094633758  -12.46086205576488
C          -9.07500104471063    3.60103494301047  -12.18448274307003
C          -8.25922676999560    3.58655797602508  -11.06359379981529
C          -9.07357451892227    0.43425617336633   -9.43343725294627
C         -10.01465063568606   -0.49442852046205   -9.08824319272186
C         -11.17569989592563   -0.74947448606094   -9.84828403811582
N         -12.13067332980027   -0.99158364574224  -10.43640365656280
C          -9.99870327973896   -1.22166636467552   -7.87797465777795
N         -10.08287294216301   -1.76910752534975   -6.87304367394738
H          -4.12802016545121    0.45813952519697    9.75798935680494
H          -4.35546480194225   -0.26667911064739   12.09221600603960
H          -3.78553728599514   -2.56004656547640   12.76099875091072
H          -2.96026586896374   -4.18434851355384   11.10575034501269
H          -3.12543091480506   -2.26399013417776    5.10940833169704
H          -4.22560534258744   -5.16461978608328    7.00703667795764
H          -4.40052689682158   -7.43343622340876    6.12525565608222
H          -2.12413889271982   -3.87427139236061    3.50007509469270
H          -2.15071242290217   -4.84683438473640    1.00944934712077
H          -1.31740169585050   -6.35742266178513    0.56683728200109
H          -0.62018418038964   -5.28712519599027    1.80833779948188
H          -4.47351710676722  -11.62818831303473    6.97386244244524
H          -3.92494776082139  -13.04509969768563    6.04656655924992
H          -5.63919109584538  -12.56120377611465    6.00243152601156
H          -3.81934109798005   -9.79804607185053    0.82512278651855
H          -4.49832407440038  -11.88475211835446   -0.19070646402986
H          -5.00912012901706  -13.69181203029150    3.67482392002287
H          -5.25757167387942  -15.02478501520873    1.78952836435350
H          -5.95053310657190  -16.64200923172878    0.04687569113180
H          -6.72357348163743  -16.77052887256955   -2.40203059494461
H          -7.33144682226985  -16.26049781183428   -4.71990274732791
H          -7.90366716995301  -15.07816698665303   -6.93012028505008
H          -8.05894658188262  -12.83345676703008   -7.95466782870666
H          -6.27252630951513  -10.58226835381741   -5.47379974751207
H          -6.28598237188831   -8.17061881492408   -5.61230100718897
H          -8.65344688177268  -10.88064965746417   -9.03687255730242
H          -8.77146046049642   -9.19356859702060  -11.11765844356248
H          -9.71569235440938   -7.68471900370185  -11.04968415338153
H         -10.29219939513870   -9.13345977455443  -10.19097637718211
H          -6.67084819685563   -4.58812342801007   -3.31110839283538
H          -7.50243765292171   -3.04806887536254   -3.64199769404155
H          -5.74677402393365   -3.18846232417718   -3.91162601690197
H          -7.67784413003118   -4.17684929168073   -9.66551623093864
H          -7.53684695086304   -1.74634402593177   -9.82946133512508
H          -6.78764738113214   -1.42143398720668   -5.62217530223109
H          -6.39320321776914    0.48674912689344   -7.22124944394534
H         -10.66808237258771    0.62691906272567  -11.84682523201483
H         -10.55230747265369    2.57717387499961  -13.34389003330719
H          -9.03761408756481    4.44721331067963  -12.85337439261519
H          -7.59477430936210    4.41205434449116  -10.86777150860994
