141
 SCF done       -255.545744444669          0.000987329889
C          -0.39289421663460    2.88634854911739   -2.07828011058853
C          -1.26168417283753    3.76499236121308   -1.44931582634875
C          -2.19688572886265    3.31273961925017   -0.52845600588021
C          -2.28664366448404    1.96751045309576   -0.20538493197870
C          -1.42491762240281    1.07920706063895   -0.82826308658274
C          -0.47550588934512    1.53680602067242   -1.77117657812402
C           0.27795080572783    0.39735193519796   -2.27483263418336
C           1.38330889776418    0.45081979716441   -3.07764104039791
C           1.95491740329796    1.64941909718133   -3.55693374417091
N           2.46833620272891    2.58526552803027   -3.97811939232987
C           2.13631703947303   -0.66607538446266   -3.49983844551288
N           2.79844536771986   -1.52630500959465   -3.87367118137427
C          -0.37676025382713   -0.80124869378705   -1.74950067802215
C          -1.27134066986988   -0.35861116953866   -0.68073636312335
C          -1.67462135224714   -1.10359286145730    0.39251602466925
C          -1.26319771494626   -2.43202304994107    0.63091699010241
N          -0.91455478238605   -3.48664820657075    0.91930568030424
C          -2.47842958372291   -0.60127865383885    1.43717549551853
N          -3.14270780590755   -0.24509562723468    2.30243584468927
C          -0.24767228091061   -2.04551191855370   -2.27780367008628
C          -1.11243422674819   -3.18049066223826   -2.08678415965107
C          -0.55960351348529   -4.46905481037880   -2.16058699891364
C          -1.37500737442910   -5.56063602823512   -2.00516254993416
C          -2.76037568183465   -5.39797064892975   -1.82080668402852
C          -3.32278535288003   -4.12827806915105   -1.78923215308135
C          -2.49693269143126   -3.03242229619937   -1.91447483247974
C          -3.37052180244369   -6.70487580672050   -1.74314838207314
C          -2.36340256949692   -7.67779951145529   -1.88048663240792
C          -1.00895188826640   -7.02477469650677   -2.02401141627115
C          -0.32501013225856   -7.42085409410732   -3.34543398011491
C          -1.17652421375204   -7.10852355113964   -4.57026332655482
C          -0.08976126798644   -7.37913438776231   -0.83818967274301
C          -0.68540844614725   -7.00029367406810    0.51217000902324
C          -2.67615132015631   -9.01403888525285   -1.89815236613978
C          -4.01790018924514   -9.41356969985906   -1.78771702892371
C          -5.00589158979987   -8.42929684187971   -1.62319827318971
C          -4.69751939283860   -7.08588972045539   -1.59708953406380
C          -4.43980014309183  -10.78746465650291   -1.89538988870687
C          -3.64422872728869  -11.86473636809218   -2.06499733558918
C          -4.12141099918006  -13.18679306171327   -2.29343782515097
C          -5.42084298774418  -13.64101916622327   -2.43511053875026
C          -5.47359419532326  -14.99719388673763   -2.75526426419384
C          -4.20474210574459  -15.59111158741374   -2.84902722186163
S          -2.95102436114260  -14.47631835917561   -2.53713087149938
C          -4.36771985751651  -16.94549218671834   -3.24124398227705
C          -5.73922871296734  -17.20266848654013   -3.40396497246794
C          -6.48130208914238  -15.99503915701029   -3.08507237514545
C          -7.83467481306493  -15.82649463616265   -3.10056265254812
C          -8.71946918292389  -16.86998169139641   -3.44525640953169
N          -9.44370099670012  -17.71364372793060   -3.72529407203613
C          -8.43924591461071  -14.59539071567864   -2.77117524128337
N          -8.93187168564424  -13.59466465819138   -2.50464178702062
C          -5.99851267601344  -18.49794201957526   -3.85577540045762
C          -4.84003881171319  -19.22653582941369   -4.02987843321752
S          -3.40215647104078  -18.30250361150810   -3.61571240052749
C          -4.72038123161622  -20.54894340214128   -4.53555221497203
C          -3.59165643387375  -21.31358019499550   -4.63342653448532
C          -3.80774115238237  -22.57065580106353   -5.24317288683399
C          -2.85784293355086  -23.57211508403303   -5.53324062208213
C          -1.47398513719017  -23.48107354576100   -5.11681284429223
C          -0.36424089339971  -23.89717602870971   -5.79606502725074
C           0.82551455396285  -23.71989140748819   -5.05810485068674
C           0.64587261819556  -23.18927408199047   -3.81323154635169
S          -1.03328021202028  -22.87675345245459   -3.54090169450322
C           1.66831259221436  -22.86917109724909   -2.78550584814161
Cl          2.37113058842547  -24.14887853135437   -5.68099392740479
C          -3.32120413008398  -24.68393898947738   -6.23074396097174
C          -4.67143395689895  -24.83562910955606   -6.63596213791685
C          -5.62133227954618  -23.83046920284331   -6.34968654161007
C          -5.16191886499231  -22.73361397365493   -5.63751269784537
S          -6.12826933210774  -21.35499738307592   -5.19403304507419
C          -6.98153456988236  -23.94589827323797   -6.83019510397704
C          -7.39067248242011  -24.37927352903468   -8.05970611463385
C          -8.79484027625644  -24.38566516793857   -8.19727625291122
C          -9.46947695922611  -23.95724440754334   -7.08998559828404
S          -8.35094523385425  -23.52735343793800   -5.83981929234945
C         -10.93359988496451  -23.83193967753856   -6.88393982315864
Cl         -9.56530205484708  -24.90707994907053   -9.64682913099684
C          -4.89392787912382  -26.06403506966559   -7.28691315699669
C          -3.76565747901023  -26.83368704874224   -7.41829082637943
S          -2.37474907022878  -26.07306006004330   -6.67487814399996
C          -3.63469194108479  -28.12288232944595   -7.99825298077565
C          -4.42638374828564  -28.66086844754520   -8.96839345967859
C          -4.53122389081252  -30.09007111222474   -9.25718910601647
C          -3.64073708905700  -31.07081693373024   -8.91744307137107
C          -2.41371772779562  -30.86551584533851   -8.25023587008673
N          -1.40247953039231  -30.77603897095002   -7.71415599392569
C          -3.81022348081863  -32.43527851356730   -9.23783251533472
N          -3.88450503954280  -33.55675603968692   -9.46923249072519
C          -5.77558629983233  -30.27836841599841   -9.99101008934100
C          -6.32145839127119  -29.01151274662983  -10.29943916546363
C          -7.52772417705933  -28.90352136898682  -10.97164432636419
C          -8.18214582915656  -30.06764959403029  -11.34424835982824
C          -7.64084892444538  -31.31314068169168  -11.05702574678867
C          -6.43724819719631  -31.43328709610913  -10.37857046025414
C          -5.40726129966549  -27.98849212867105   -9.81906844507745
C          -5.32771938276581  -26.71383590903957  -10.30719257259408
C          -6.24217485676342  -26.16995150838188  -11.23540321699284
N          -6.95416516889698  -25.66412385688773  -11.97957787498875
C          -4.28142713700507  -25.80890527571387  -10.02623779666015
N          -3.44657267587712  -25.03417243311766   -9.88433795772416
H           0.32290478070072    3.25443672167840   -2.79475841676821
H          -1.20978515232797    4.81703328423902   -1.68434065267757
H          -2.86620689529905    4.01612754883539   -0.05734873588958
H          -3.02146998779821    1.62595639100898    0.50566896718191
H           0.56042018760597   -2.20960002337205   -2.97893174376009
H           0.50479305992178   -4.57850962768069   -2.30615136693699
H          -4.38851035074826   -3.99862403664515   -1.67662160097357
H          -2.92684437820246   -2.04060732722332   -1.92727754707309
H          -0.10693699720462   -8.49037648905065   -3.31952593584535
H           0.62580391752109   -6.88979703272818   -3.41989811898049
H          -2.12204013226063   -7.64518169483933   -4.52970427691970
H          -0.65158736848508   -7.40443228016996   -5.47543283090019
H          -1.38956315249211   -6.04340797859401   -4.62968366483955
H           0.86269443258859   -6.86236200498593   -0.97064501765326
H           0.10582568593318   -8.45368620226727   -0.86322049221240
H          -0.84285745892911   -5.92707993559696    0.57987734748250
H          -0.00861055644165   -7.29650293180095    1.31002303971224
H          -1.63870799488956   -7.50132587667943    0.66773959058146
H          -1.89751129035413   -9.75143577182628   -2.01574032609950
H          -6.03612619132245   -8.74037890350544   -1.52666978212859
H          -5.47512990851251   -6.34661590807090   -1.47798388449224
H          -5.51081813625726  -10.93763562634265   -1.87098560330305
H          -2.56861535071661  -11.75853753791941   -2.06758960001179
H          -6.28230745034016  -13.00900978339852   -2.32737905912993
H          -6.97336571501789  -18.90304908555320   -4.06006159697513
H          -2.63304754665332  -20.96786441677875   -4.29229922648190
H          -0.37868000664212  -24.28020730814347   -6.79932292282092
H           2.55321227641824  -23.48098583517591   -2.94551165044700
H           1.27852136172277  -23.05184733126744   -1.78656265810067
H           1.96085544774689  -21.82010870195386   -2.84930466384320
H          -6.72082712494158  -24.62464319769908   -8.86307104298825
H         -11.45806906180997  -24.16707975386826   -7.77511337312929
H         -11.20308992813595  -22.79585164324312   -6.68175547923650
H         -11.25555763319918  -24.43270130883027   -6.03416331800655
H          -5.86909888474101  -26.39958523675038   -7.59113401675812
H          -2.85531090194291  -28.74022550615923   -7.57232697339688
H          -7.96165654196788  -27.94115464535310  -11.19027091899763
H          -9.12588964226717  -30.00148463269983  -11.86345868402542
H          -8.16606361218614  -32.20572321385438  -11.36063340936201
H          -6.03779251076306  -32.40910070233474  -10.15670171885587
