120
 SCF done       -239.472348072918          0.000597676391
C          -7.84633264374806   -2.04132845837039   -5.47322631057490
C          -7.99294462950029   -3.06247331427124   -6.40097031905123
C          -8.16480789595638   -4.37894512816367   -5.99795318410746
C          -8.20499574860245   -4.71259927409373   -4.65217294536695
C          -8.06008104922336   -3.70143613738489   -3.71815581922361
C          -7.87328507385911   -2.36073014673654   -4.12515335699413
C          -7.72637319341293   -1.52357343669816   -2.93974112996044
C          -7.64405859106112   -0.15507105095530   -2.92614478821193
C          -7.69652156635139    0.65184560953722   -4.08203865368180
N          -7.73304835881187    1.36734467221739   -4.97889054448639
C          -7.54020555990904    0.64169348724589   -1.76768485214317
N          -7.45815521365647    1.34707202685657   -0.86452394543017
C          -7.67490165618403   -2.42321113331686   -1.79750509033396
C          -8.10021247373102   -3.73397221957455   -2.26472976809698
C          -8.72157223154793   -4.69177234179057   -1.50665886185650
C          -9.03953508427570   -4.51431680165046   -0.14412807439185
N          -9.35786875819143   -4.37401512431617    0.94991732628082
C          -9.20490972415625   -5.91093362602919   -2.02205173601256
N          -9.60201003242620   -6.92414946622907   -2.38660755554675
C          -7.20652313092906   -2.07780054191683   -0.55447388832597
C          -6.69554379070162   -2.90634355122777    0.45396688348538
S          -6.10065626484272   -4.53536236809249    0.21238809264088
C          -5.59106514876048   -4.70429263876832    1.86460126089845
C          -5.86966304707678   -3.54061537030788    2.56264237209492
C          -6.46171681597916   -2.51688598405346    1.77957742815678
C          -6.69515524983243   -1.34158348541827    2.52701528509166
C          -6.28529644561264   -1.47586784572082    3.82151942580579
C          -6.33192389472183   -0.49482176807246    4.91308881053354
O          -5.93646831233460   -0.71981214138155    6.03001721594828
O          -6.85542773588688    0.66804089424732    4.51427718860129
C          -6.93340690804964    1.68229996735806    5.50687334446112
S          -5.60835788621482   -3.03872540433289    4.19968645923126
C          -4.97778443766274   -5.88652319968057    2.34420922862000
C          -4.69698183577014   -6.18246566131969    3.65242209878106
C          -4.05557059518086   -7.42652069345500    3.82373249936987
C          -3.67314784110640   -8.03354559659831    5.03999705444488
C          -3.83011040217460   -7.33759639097643    6.29824267184814
C          -3.60455794803058   -6.01488600128211    6.56091563611633
C          -3.88148445918291   -5.66938868835736    7.90020986859358
C          -4.32006120634192   -6.70974331520440    8.66990613617784
S          -4.38508104356106   -8.16098454749295    7.73054583938892
C          -4.71378756456849   -6.70525942635989   10.10021735072339
Cl         -3.68746843610384   -4.06339931396718    8.48918930061883
C          -3.14051880861078   -9.31273994593551    4.94688876912474
C          -2.93821133673262   -9.98833291381634    3.71543346005973
C          -3.31334655775438   -9.37765305508787    2.49815221535359
C          -3.86241922097952   -8.10305308467118    2.59219074288310
S          -4.46258047874710   -7.15701880467661    1.25617320778463
C          -3.16422188393784  -10.03103471966801    1.21495618977539
C          -2.83967669178021   -9.45715593730029    0.01778673413298
C          -2.84405495539269  -10.37877390472204   -1.05052078741078
C          -3.17946864480432  -11.65385473087454   -0.69688123803632
S          -3.49154906052623  -11.73128744961364    1.00286134962007
C          -3.29523573106863  -12.85876465443672   -1.55534545400066
Cl         -2.45474930599059   -9.91624617426307   -2.66226229859561
C          -2.30491325313561  -11.23687824646080    3.90441256063426
C          -2.04857279603754  -11.52957551585318    5.21585439544606
S          -2.57758932435865  -10.25854405810805    6.29548219774110
C          -1.42249003681865  -12.69229041216687    5.73924984729249
C          -1.20988585616931  -12.99905602128232    7.07031710478134
C          -0.55017234309018  -14.21741862423588    7.22419380842449
C          -0.25744110273971  -14.84036424943106    5.99728458569888
S          -0.80413984288747  -13.92940056332970    4.65955779806063
C           0.41819269993769  -16.05812026387620    6.25431465881835
C           0.55088425917886  -16.20375289335964    7.65192046208266
C          -0.06449639891389  -15.06043532214488    8.30430435338675
C          -0.18649419749061  -14.85434268508634    9.64690306828354
C          -0.81488451245796  -13.70922260692183   10.18024048280144
N          -1.31945948589351  -12.77673450665789   10.61586430461794
C           0.31373833766129  -15.78890058780482   10.57840603902873
N           0.73005855749156  -16.55960533273700   11.31839795193149
C           1.19050443582782  -17.37887772557287    8.01516497962577
C           1.54714321495536  -18.14572648289101    6.91281540595361
S           1.10229493989483  -17.35920342036934    5.40090161549032
C           2.24348180121454  -19.37218789725982    6.86225618672314
C           2.38999020684082  -20.28928999897429    7.86599229959329
C           3.44906369283448  -21.29387593065115    7.90910742485279
C           4.22918333183303  -21.72494934332097    6.87004388271703
C           4.12155738346954  -21.29650019313760    5.53004162583321
N           4.08865802210301  -20.99798104013846    4.42164140274053
C           5.23686269979165  -22.70602209233512    6.99294592650966
N           6.06988461513870  -23.49491101120147    7.01899595031592
C           3.52915563060376  -21.75937871866837    9.28736543486637
C           2.46081885794316  -21.19763650878171   10.02261117103731
C           2.32011873534875  -21.45262404723739   11.37649227960638
C           3.24748454109961  -22.27998540330410   11.99179199137058
C           4.28893114564406  -22.84560277328650   11.26946108182799
C           4.44271598729053  -22.59226146209461    9.91447924519382
C           1.64472801114911  -20.40620544480336    9.11586864361852
C           0.32736803328110  -20.09243561600635    9.31496673773223
C          -0.37386356927890  -20.36249190236915   10.51004569943683
N          -1.00016527617441  -20.56136851688970   11.45027416208919
C          -0.52249607423792  -19.55532849741558    8.32683534022475
N          -1.26877068139919  -19.15174825519884    7.55338042802711
H          -7.71036207457370   -1.02570427856030   -5.80650781388276
H          -7.96906379790339   -2.82526135691064   -7.45356284331465
H          -8.26847961884612   -5.15604640651609   -6.73963872910377
H          -8.33286479318539   -5.73874599518178   -4.34732742945164
H          -7.14230919131842   -1.02270257727506   -0.32227839629362
H          -7.13381017566171   -0.43987940344625    2.14125560813280
H          -7.34010379798418    2.55897158655797    5.01029910016980
H          -5.94141012108071    1.89286728027726    5.91171231509632
H          -7.58541175849870    1.36401782611037    6.32281474023825
H          -4.98709416342072   -5.54528231777227    4.46569406121031
H          -3.21077173705704   -5.31499748703437    5.84755860334798
H          -4.50911747226487   -5.72900747677395   10.53208172302454
H          -4.16185235747442   -7.46441144460047   10.65233049089291
H          -5.77685563527512   -6.92121286688387   10.20601997921608
H          -2.56610742712156   -8.42593405421242   -0.10494331045562
H          -4.33960912626913  -13.15182738837221   -1.66556952085741
H          -2.75651034032792  -13.69702217524693   -1.11673255567205
H          -2.88731929161125  -12.64682813479140   -2.54057673175398
H          -2.03140902956317  -11.90088853356808    3.10509669027690
H          -1.52682992722705  -12.35541091170070    7.87122110094786
H           1.43162348679254  -17.65516599681388    9.02560386857947
H           2.76618258595734  -19.55816439498504    5.93357631562483
H           1.52158360560519  -21.00831556276556   11.94811065605204
H           3.15687310613240  -22.48332374836998   13.04769672530619
H           4.99692011912803  -23.48928575934345   11.76862710387998
H           5.26318710027254  -23.03344395163310    9.37306487282491
