128
 SCF done       -230.628270091365          0.000522168490
C          -9.93653345916239    2.81742522016350    0.89304846010035
C         -11.18712747162273    2.85649850303807    0.29475849480985
C         -11.60437200734087    1.84674869016614   -0.56080715824680
C         -10.77791554090834    0.77171889587366   -0.85078318022861
C          -9.52612023302254    0.72274472850951   -0.26047911801465
C          -9.10341777773976    1.74380568933480    0.62041835595741
C          -7.77057225758989    1.41940502345101    1.11225313175749
C          -6.97027271460688    2.23789508058822    1.86127341243781
C          -7.33681537707611    3.53710827103333    2.27379276546305
N          -7.57114958241298    4.59872643524197    2.64133913471074
C          -5.65838166550851    1.93657484419541    2.28688506357354
N          -4.58628288466344    1.77006476713315    2.66235957809550
C          -7.46918368769624    0.06845605502116    0.64442362673344
C          -8.44907152298522   -0.24657760965271   -0.39018755643078
C          -8.27465848201489   -1.09941662153351   -1.44672721046230
C          -7.08272419949247   -1.81551931093437   -1.68750705824667
N          -6.11551648057619   -2.37361409056823   -1.95018389058583
C          -9.23833377829897   -1.30630293568423   -2.45345007093675
N         -10.00312865700350   -1.53082581494308   -3.28015747548417
C          -6.53145170892728   -0.74178911103289    1.21916658114207
C          -6.42945247151241   -2.15102869276280    1.14206933544609
C          -7.38429152192216   -3.08085966655939    0.80696330760359
C          -6.94665231025853   -4.41317285304189    0.90616748601347
C          -7.68561520021532   -5.58640810246958    0.62679637235000
C          -8.99257660150271   -5.53812087276217    0.01179073643537
C         -10.06121772008932   -6.37197921243575    0.19338992954278
C         -11.14867453761467   -6.05226712245055   -0.64500560191536
C         -10.93180288887110   -4.99452840554772   -1.48306342793523
S          -9.34592437432938   -4.36209581191974   -1.23101533792218
C         -11.85221970693210   -4.40391721439010   -2.48684659115042
Cl        -12.63217292861810   -6.92333053996497   -0.61904980549679
C          -7.05752976024464   -6.78884606073812    0.92488286814853
C          -5.73742731870436   -6.87736617596037    1.43778392693365
C          -4.98141404132296   -5.70835821899986    1.66013052609810
C          -5.61386947892569   -4.50008654874276    1.38523703792893
S          -4.93774995057479   -2.92050242194457    1.64791280699843
C          -3.62559308434407   -5.73015402765825    2.17131578397188
C          -2.58897945299961   -4.91561146320663    1.81618221281374
C          -1.41669918142071   -5.16308562164988    2.56348110495908
C          -1.53986373155988   -6.14739522724226    3.49991446828637
S          -3.14091596344779   -6.80406361645228    3.45743163381012
C          -0.52573103474909   -6.65889449840636    4.45564012573179
Cl          0.03992098722990   -4.28374786059283    2.30279957288667
C          -5.33590133983099   -8.22256181787864    1.61825606769257
C          -6.28494986834836   -9.14140343892593    1.27938440916668
S          -7.74034859206159   -8.36976885085801    0.68375693048795
C          -6.22945755343307  -10.58003998181135    1.39697542852373
C          -7.19867227240789  -11.36665406334007    0.75863505748080
C          -7.18933675540992  -12.73295184786550    0.91094379854800
C          -6.19087193542723  -13.33148232557585    1.70385187218460
C          -5.21750591094200  -12.56402548925830    2.32737717905671
C          -5.24096563730985  -11.19386256218892    2.17436843970839
C          -6.40500625019686  -14.76013801806541    1.72709245009689
C          -7.52563788907653  -15.05190608971119    0.93539960503695
C          -8.10592093707242  -13.78762210212745    0.32604641632635
C          -9.58747955698648  -13.67647076900347    0.76015117194199
C         -10.16534258479562  -12.27523141695495    0.92074873316116
C          -7.92970896084672  -13.90740562573094   -1.20536600040796
C          -8.47937792513024  -12.76704119117220   -2.05072961239269
C          -7.96638134967956  -16.34634514500488    0.80711552597567
C          -7.30333125162324  -17.38298155633312    1.48378348017744
C          -6.17554880723179  -17.07268219695684    2.25689412015022
C          -5.72185238084283  -15.77651181836445    2.38118029309440
C          -7.82524688906746  -18.72358413705851    1.35437278004945
C          -7.48231030815338  -19.78385795001108    2.11103525333343
C          -8.02483238805321  -21.11050272394140    2.01119623917365
C          -7.64026006961884  -22.07508578101101    2.93159485305442
C          -8.13349864536887  -23.37559398098200    2.92985279537466
C          -9.05289134206768  -23.82879282893259    1.99758010466502
C          -9.47149727578407  -22.88611152140862    1.01162804513769
C          -8.96196686544382  -21.53048209645092    1.01961999760783
N          -9.44375387165337  -20.77342370122184    0.04252829196752
Se        -10.55572078235991  -21.70440605469320   -0.93743313966849
N         -10.33083943230296  -23.13637457020488    0.03410391901956
C          -9.56180426564057  -25.16825233157244    2.02627945841656
C         -10.44866227175116  -25.77094497173696    1.15736813098989
C         -10.72306849436701  -27.09313450318738    1.51348607820465
C         -10.04078333382628  -27.50352662203766    2.66510413506250
S          -9.05888127521798  -26.26781718626332    3.30899575816817
C         -10.39451050348247  -28.85554724945020    2.94206360383688
C         -11.29636946416249  -29.29059460111319    1.96459608120696
C         -11.53432916949554  -28.20377015329244    1.03156375000078
C         -12.34406612951168  -28.21509876665761   -0.06628868980343
C         -12.49883005182624  -27.09305316931133   -0.90763576874559
N         -12.63742141892391  -26.19204364889046   -1.60340615880792
C         -13.08578358455227  -29.35558045234255   -0.43890576975901
N         -13.69092059019312  -30.27996077110464   -0.74680973582520
C         -11.70448069845897  -30.62351164662729    2.16490662792185
C         -11.11597708298178  -31.16185334453796    3.26810693379006
S         -10.05219817400928  -30.06892017574241    4.09270687751422
H          -9.63297969881189    3.60702561995970    1.56035542450528
H         -11.84618294827219    3.68506247666581    0.50417126760232
H         -12.58596609842370    1.89556024312452   -1.00668496565329
H         -11.11463701791718   -0.01130881945502   -1.51064400067916
H          -5.81071883769769   -0.27802430247241    1.87983847586341
H          -8.39701881070382   -2.81168722898479    0.57008271078574
H         -10.09597782488612   -7.16169866712003    0.92037114025468
H         -12.79047306750539   -4.11459528851148   -2.01329302805335
H         -12.08313258421649   -5.13479813019019   -3.26198826519924
H         -11.40025863443135   -3.52986811284543   -2.94990348767436
H          -2.63538157586467   -4.18894875610645    1.02668561139619
H           0.41345604014955   -6.13251838450824    4.30600977197629
H          -0.36186236941254   -7.72603043981029    4.30893915573183
H          -0.85574247256862   -6.50850832997549    5.48326510810458
H          -4.35955518647175   -8.49611652735465    1.96958674623415
H          -7.94398129052358  -10.86775239227665    0.16001688186483
H          -4.45672937136478  -13.03218353067174    2.93355236400893
H          -4.50362810604490  -10.58752322923772    2.67646845471408
H          -9.68711403093615  -14.18386075039749    1.72377507273947
H         -10.18923539122558  -14.23261437235207    0.03830017836968
H          -9.64198175738476  -11.72731712115000    1.70011729518605
H         -11.21139591203868  -12.35704803078382    1.21075745330915
H         -10.11686474926891  -11.70364197123181   -0.00065638114769
H          -8.41157493472833  -14.83649609604369   -1.51930445291226
H          -6.85951249545188  -14.01183366000004   -1.40564397854670
H          -9.55271791113182  -12.66224372647980   -1.92097108394579
H          -8.28858770177199  -12.97946775617357   -3.10105728014879
H          -7.99595941568856  -11.82559940452063   -1.80794271698498
H          -8.83343144448344  -16.58191024497728    0.20689741747508
H          -5.64201492581592  -17.86461787639131    2.75920378359074
H          -4.85167889601765  -15.55631052037558    2.98158440155439
H          -8.58252109225832  -18.86053897197968    0.59622189617393
H          -6.75361020425402  -19.66589191409765    2.90308764635813
H          -6.92727383813138  -21.80184623234337    3.69618739018017
H          -7.78618149470338  -24.06002992767738    3.69096078942177
H         -10.86285133176599  -25.25259189953713    0.31328805902023
H         -12.39187453322186  -31.15734927473218    1.53461264358187
H         -11.23789418611909  -32.15058167565561    3.66270232550092
