104
 SCF done       -196.009927206743          0.000809429854
C          -0.82867306604374    1.80695501335125   -2.09125832991316
C          -1.31628771213267    2.47182592995699   -3.20654952338889
C          -2.62526101913885    2.29192001546314   -3.62670366979275
C          -3.48689022238159    1.44426041821217   -2.94534922170276
C          -3.01074622504327    0.77287308932440   -1.83231343041495
C          -1.67731123638924    0.95354530821732   -1.40315411767586
C          -1.44992084052728    0.12182125489005   -0.22955454022424
C          -0.31339634847261    0.12315593884225    0.53559828153827
C           0.80707175578380    0.94783590907635    0.28920419481815
N           1.75414838969975    1.58323277574707    0.16268961254809
C          -0.08042305519528   -0.64729066858704    1.69480947326693
N           0.19283472425718   -1.23269590449356    2.64518901054339
C          -2.65442112184692   -0.69009275207499   -0.04225259476882
C          -3.66977862984747   -0.14828960119660   -0.91558248317876
C          -5.02894852246079   -0.31345965719979   -0.80041748277901
C          -5.63815289995010   -0.95235611923296    0.29627615328583
N          -6.17258080144619   -1.45230057739066    1.18045604996111
C          -5.96865024383003    0.22996547654895   -1.70045215333221
N          -6.77442231387819    0.62307194871900   -2.41745793503996
C          -2.65260602880224   -1.80640386695498    0.76660370748955
C          -3.46357700226055   -2.94960123075151    0.81859018384481
C          -4.40725331017967   -3.50930682618190   -0.06501623645600
C          -4.79089510376555   -4.76876736419793    0.42794431338410
C          -4.06557804105722   -5.02665920865504    1.65420133437762
O          -4.07277228565388   -5.96540055823209    2.41942399640150
N          -3.28496272532353   -3.87224205510113    1.82960661966177
C          -2.46119682752784   -3.70613746872554    2.99707371010590
C          -5.69123855479642   -5.35585992067653   -0.47473982798672
N          -5.94230369583634   -4.41570606243651   -1.45548195797188
C          -5.13226626185216   -3.29028234659459   -1.29521021278196
O          -5.12531120921488   -2.36196284128991   -2.08824039727175
C          -7.11858219943768   -4.32499836771193   -2.28852937979797
C          -6.15239526576377   -6.68183231452002   -0.47215893920039
C          -6.42502517007479   -7.41223839081852   -1.61210236556345
C          -7.06949665983935   -8.66720539869993   -1.72895301147569
C          -7.22257891731000   -9.09631845348420   -3.01856023967215
C          -6.67144633767334   -8.21837770405448   -3.97457816291719
S          -5.89437383991611   -6.87512940017370   -3.19025669887359
C          -6.76973554493942   -8.18973619660772   -5.36102041614291
C          -7.52588575565867   -8.98639737609104   -6.24702380490943
C          -7.57666285183079   -8.47685157544847   -7.51334849412229
C          -6.87959424317320   -7.25177654475007   -7.66787947363935
S          -6.05185999634433   -6.84798234787017   -6.20426447619985
C          -6.82325439998165   -6.45667389450269   -8.80158263207358
C          -6.37503958605926   -5.13570399527227   -8.84911760212173
C          -6.21818232338226   -4.15541724772574   -7.83662200167863
C          -5.75006554422857   -2.97734957919516   -8.44367490672404
C          -5.62366287517374   -3.19747047742392   -9.87264156895572
O          -5.25483125559076   -2.48470516769985  -10.77624045973521
N          -6.03503480108420   -4.52887929218674  -10.03952416413579
C          -6.02460716847551   -5.15671706681436  -11.33202924707112
C          -5.72361975679887   -1.94333129623723   -7.50012493880992
N          -6.14694186938492   -2.48839285479248   -6.30796344465645
C          -6.50082530485627   -3.83461086474701   -6.45279681268206
O          -6.95186292779868   -4.48939438644713   -5.52671992583167
C          -6.06702441724085   -1.89420217506996   -5.00052155065803
C          -5.30598554006628   -0.61969359299737   -7.72289934136346
C          -5.68256108514784    0.51279811010635   -7.03600222096748
C          -4.89619621517987    1.73115903783390   -6.92791492841379
C          -3.66007940001814    1.96215939915417   -7.47662339101290
C          -2.92856776537338    1.06118833169401   -8.27891616599390
N          -2.24531296173216    0.38055300612446   -8.90177920121583
C          -2.91034734459933    3.13734221078953   -7.26244332384531
N          -2.24214119232710    4.05917259513260   -7.11243767137624
C          -5.59090809662150    2.60865784621671   -5.99365930558424
C          -6.76668063374325    1.96291788055219   -5.54820308332869
C          -7.57322166228076    2.54220496007653   -4.58405988354037
C          -7.21198587426487    3.78339389361264   -4.08071059579574
C          -6.08531858038357    4.44246244468530   -4.54949584897213
C          -5.26582822530902    3.86643943523179   -5.50982555212523
C          -6.91142479666728    0.71869129825390   -6.28679372420293
C          -8.08407282435099    0.02581738999597   -6.44716871131804
C          -9.27389598735404    0.31906133430181   -5.74667030459991
N         -10.27392000367869    0.49054353630480   -5.21069729142625
C          -8.30204361518248   -0.98839687284557   -7.40203367255569
N          -8.57453641081112   -1.77044508471938   -8.19786255351850
H           0.19211690311271    1.95564669254569   -1.78076503481175
H          -0.66811792410428    3.13570578694056   -3.75706263297268
H          -2.97879467014155    2.82421093788352   -4.49576763289071
H          -4.50108040290683    1.31169459227004   -3.28590252987334
H          -1.80744917201901   -1.87066486476099    1.43827186169399
H          -2.62837929368025   -4.58256651793706    3.62322604571758
H          -2.74258465411593   -2.80821020442436    3.54910662640797
H          -1.40112347108343   -3.65261037343977    2.73941391402939
H          -7.85572799595279   -5.05365597845595   -1.95939659082875
H          -6.89900634813500   -4.48334287965722   -3.34676837161935
H          -7.53166017436217   -3.32039989492164   -2.17661392192924
H          -6.20411718232744   -7.17243708485245    0.49012309762511
H          -7.44752245491954   -9.18682905724806   -0.86651088285446
H          -7.72952478704895  -10.00190248166522   -3.29967992167866
H          -8.03722944671079   -9.87611187670226   -5.92655903786448
H          -8.13649185574676   -8.91269360138238   -8.32174999559404
H          -7.16449742166876   -6.90042978702318   -9.72714400644354
H          -5.62400893211530   -4.42431027366275  -12.03315327316211
H          -7.03458920686464   -5.43029289023712  -11.64444170118125
H          -5.38826694901641   -6.04375385694640  -11.33190436850760
H          -5.39091444529073   -1.04240352531152   -5.01237882995536
H          -5.68009110535442   -2.63103784708589   -4.29713207179838
H          -7.04547080919877   -1.57095615848106   -4.63839189136325
H          -4.58035143410154   -0.52009548747991   -8.52021937676225
H          -8.44861846782307    2.03849721826489   -4.21115580407059
H          -7.82238751852675    4.24304360011254   -3.31891005138747
H          -5.83483415317918    5.41805908668823   -4.16137351898538
H          -4.40271896086865    4.40293387743086   -5.86922112689223
