112
 SCF done       -200.129469110299          0.000545918998
C          -2.48876565073056    2.33711064678783   -3.31949995152143
C          -2.47359882688729    2.36424409306169   -4.70653359729091
C          -3.28511355701803    1.51906295730327   -5.44920543663845
C          -4.14460073572307    0.62696164721131   -4.82512534550771
C          -4.16762020069919    0.59166333275333   -3.44160046021777
C          -3.33403015011950    1.44320172775408   -2.68199665499432
C          -3.54625982212411    1.17037951709265   -1.26474099666827
C          -2.98254546364900    1.86150615974226   -0.22275970887344
C          -2.11842470355177    2.96497777435746   -0.38010560176802
N          -1.41154685076157    3.86818002493107   -0.43140478207758
C          -3.20351254168483    1.60316628822010    1.14514792144211
N          -3.33427500901581    1.45037274244890    2.27644828275821
C          -4.43528158017113    0.02220026397996   -1.18809198434674
C          -4.97343964688619   -0.19528624919297   -2.52138313132597
C          -6.18508006166607   -0.76624670979030   -2.81564268053874
C          -7.08851509055592   -1.22702549446307   -1.83610613651118
N          -7.86851530335077   -1.56445955495904   -1.06368550009564
C          -6.70959058922897   -0.87017483115949   -4.11888671692230
N          -7.17871306641988   -0.99658638337792   -5.15898887196077
C          -4.63003924392990   -0.74261127711745   -0.06427697671676
C          -5.05077877185780   -2.07962884642212    0.02401737083612
C          -5.47909885192265   -2.70591326760014    1.19579462146518
C          -5.76136950346934   -4.04292256754749    1.01416955140327
C          -5.51025875340098   -4.47716629675401   -0.29558991719169
S          -4.94929469148065   -3.22387421607545   -1.31368525689495
C          -5.79416673002267   -5.85157918283317   -0.38667333770698
C          -6.23903455922841   -6.31018678495976    0.85730870363411
C          -6.27445042627948   -5.18260467922893    1.86214228249282
C          -7.70630638729059   -4.90469198266133    2.33097147700287
C          -5.35459226317963   -5.46055314415798    3.05363831495787
C          -6.53117152197857   -7.66343629631097    0.85984923152451
C          -6.31354963080295   -8.25703114362458   -0.37959020754923
S          -5.74260279780254   -7.09795087370536   -1.56491610897838
C          -6.48010640082888   -9.62277649945987   -0.74695842262092
C          -6.80876388504695  -10.61247737579900    0.15230712628134
C          -6.94477007952105  -11.96152033292844   -0.16329509105868
C          -6.72908548872205  -12.45050757860957   -1.52809811307049
C          -6.41002457239341  -11.65842963435602   -2.57453633748693
S          -6.20642746187575   -9.96104699386927   -2.45325658911156
C          -6.91195390967573  -13.85763326470857   -1.45585804868841
C          -7.20816166660590  -14.23647238868164   -0.14354586126051
C          -7.43027941594146  -15.62932757542269   -0.04433872933917
C          -7.28687898220608  -16.24947846422443   -1.24473808240001
S          -6.88499422314554  -15.18340791979591   -2.54600878860863
C          -7.22977925779694  -13.05525088713065    0.68319719359449
C          -7.48187598956675  -12.96395184556497    2.06953738094016
C          -7.48625176365981  -14.00913323094851    2.94191236689688
C          -7.75445214858946  -13.90654266788641    4.32498664827332
C          -8.23968124744626  -12.82645507935706    5.05991081936713
C          -8.36996949400537  -13.11684537941854    6.40504607272273
C          -7.97584452647541  -14.42315368511899    6.72395596465088
S          -7.46262378766885  -15.30465851108191    5.34471226167440
C          -8.12272612010217  -14.62749007400358    8.10612513904387
C          -8.62597981381133  -13.44909865393880    8.68850200983321
C          -8.84144482573013  -12.38440712128191    7.63948387384603
C         -10.32913390840514  -12.03161134453249    7.53394121604265
C          -8.00118456178290  -11.13455686206802    7.91135763346914
C          -8.83824363277243  -13.56904709220409   10.04084521433728
C          -8.49247491703922  -14.83493619743337   10.53031059687193
S          -7.86716038151815  -15.86845325051869    9.24871458515420
C          -8.50730722795326  -15.33068770382954   11.83826486899024
C          -9.19000462860115  -14.83128307553726   12.92818375640829
C          -8.79392426529001  -15.04943497989658   14.30832191968967
C          -7.82552263772001  -15.90120750943760   14.77850627300672
C          -7.02918281630050  -16.76441621714507   13.99897641883537
N          -6.33398701512734  -17.48905243381692   13.44030517127314
C          -7.49382881230176  -16.04807194861833   16.14127927441076
N          -7.16844705025869  -16.22365230586639   17.22855364986825
C          -9.59038677627502  -14.14260125909394   15.12788369555591
C         -10.50714020565652  -13.46321964028054   14.29544090790347
C         -11.36982797264392  -12.51584418869436   14.82023576499251
C         -11.31668743852854  -12.25178184725102   16.18091135890650
C         -10.42593462772451  -12.92624222140740   17.00222981103277
C          -9.55563436369659  -13.87599952536380   16.48698341442891
C         -10.35880352890243  -13.97265807608323   12.93932736926229
C         -11.31172174844247  -13.86735430200769   11.95493997186630
C         -12.45542902183136  -13.05051313783252   12.04562539992027
N         -13.38562066686176  -12.37669434482826   12.03474979262551
C         -11.32218987856743  -14.61218885168048   10.75950201763934
N         -11.42848780665588  -15.21875759712412    9.78978009929655
H          -1.84839937324173    2.99957672659342   -2.76089610215358
H          -1.81536883177411    3.05369893397081   -5.21282552842020
H          -3.24886167341210    1.55359292471205   -6.52733938787791
H          -4.76752216173429   -0.03032711253078   -5.41009932427547
H          -4.35550096123350   -0.30697480130316    0.88796373926766
H          -5.59358709539220   -2.16214322844613    2.11608822777644
H          -8.34568188618142   -4.68455086822998    1.47953424344339
H          -7.71742550151264   -4.05014180823322    3.00223624129825
H          -8.10364580430680   -5.77027138265598    2.85522248232023
H          -4.34112346758476   -5.65953724066588    2.71258769995809
H          -5.71204898307829   -6.32455801600329    3.60819895345185
H          -5.33626135783883   -4.60077167855563    3.71815218969271
H          -6.89095184865932   -8.20220505594614    1.71651188701123
H          -6.95138132736769  -10.31382140612604    1.18027069609486
H          -6.25513728572975  -12.04257149252934   -3.57030494484247
H          -7.69756573482655  -16.16061366125155    0.85017531161874
H          -7.39665259378618  -17.29480204114614   -1.45793662633897
H          -7.65369082872044  -11.96960910810030    2.45861610261432
H          -7.22556121763223  -14.99399909584201    2.58616124340000
H          -8.49625136594385  -11.88542502283120    4.60923790012874
H         -10.92013138755659  -12.93275564822231    7.38806241249004
H         -10.49781613612680  -11.36019236798981    6.69571219228786
H         -10.66366509184647  -11.54497187236542    8.44677148646901
H          -6.94690180072277  -11.39341790101517    7.98123673937252
H          -8.30994053965271  -10.67264907762312    8.84574452235448
H          -8.13199526017456  -10.41538654597416    7.10659098305139
H          -9.18610605014182  -12.77697459833785   10.68004565247531
H          -7.85040018368299  -16.17253036528787   12.01197244491934
H         -12.06391031050054  -11.98181577659225   14.19180705304851
H         -11.97912422903506  -11.51129851218795   16.60258406447106
H         -10.40437042528771  -12.70973373030390   18.05938683856000
H          -8.87000534983733  -14.38748548637438   17.14177923518575
