104
 SCF done       -196.012275490189          0.000806773256
C          -8.90442025674420    1.88228553533765    2.89725436929064
C         -10.18375373380940    2.35041234875384    2.63690360610490
C         -11.19011672187989    1.49112203326675    2.21860863186844
C         -10.94896382831400    0.13483245060056    2.05686071805160
C          -9.67592106544575   -0.34428280830361    2.31460223151688
C          -8.64617060338404    0.53050100859638    2.73083443089422
C          -7.41832981739475   -0.23463893930091    2.89708993034540
C          -6.24201838838129    0.23146105132112    3.42258065060456
C          -6.05076063543086    1.55043735523878    3.88690529540183
N          -5.82491823009246    2.60399523846838    4.28214525907298
C          -5.07749372251488   -0.53891281852358    3.61906456428536
N          -4.10319193573629   -1.11609034222655    3.81455506894118
C          -7.69337818456684   -1.57957781300596    2.40036745549178
C          -9.13723938259129   -1.69291404192281    2.24952662867382
C          -9.86816386374931   -2.84840542346807    2.29728461452619
C          -9.30284816199402   -4.12420427789139    2.48381325562957
N          -8.87921017709671   -5.17643858361612    2.66593426783902
C         -11.27599336341119   -2.89565362969313    2.23621781279938
N         -12.41784676569780   -3.00067835922330    2.19040339322949
C          -6.72378985866863   -2.48090445854414    2.06104097563798
C          -6.83618709399209   -3.61178546824573    1.22175241885206
C          -6.01058470573101   -4.70792039834943    1.15041580245211
C          -6.44553118857423   -5.59357161089294    0.09485209770823
N          -7.54964568577344   -5.03825844540637   -0.48044653615170
C          -7.83865636380868   -3.82072557959824    0.14556562139890
O          -8.74498368274666   -3.09956410168170   -0.20546089743693
C          -8.48913557745484   -5.58981724105815   -1.42114854810710
C          -5.64272719284975   -6.72217284411741    0.12140262891294
C          -4.74115671541300   -6.53572423884918    1.31562925220533
O          -3.92628223553830   -7.31002923934827    1.74894157078426
N          -4.98371088598329   -5.27064008967123    1.83779039685171
C          -4.32363414640565   -4.74692698410758    3.00394159314532
C          -5.43042293707103   -7.88302366308026   -0.62873173921560
C          -5.70423313635164   -8.16064932627746   -1.95096763906413
C          -5.44903200081011   -9.38612728040017   -2.60689358984301
C          -5.74734198510905   -9.37984757562645   -3.94143737172441
C          -6.24219923495324   -8.14621494720184   -4.40158653229560
S          -6.29781440722909   -6.98769177749369   -3.10382635373341
C          -6.69120451541562   -7.78589451235310   -5.66961045399234
C          -6.70935560761551   -8.55405642237556   -6.84678380392076
C          -7.25189584919305   -7.88344205770446   -7.90582779738188
C          -7.68628593571260   -6.56948311908526   -7.60820395433408
S          -7.37410753802583   -6.20128890948034   -5.93322413628021
C          -8.27582715518541   -5.73510333769573   -8.54286940576449
C          -8.76201200916170   -4.43858381129334   -8.39178546495698
C          -9.35848028975325   -3.61724403198001   -9.33955178020017
C          -9.70746507556523   -2.37499510502318   -8.73224468963588
N          -9.34378913946510   -2.40011372771011   -7.41636976794289
C          -8.76625435601891   -3.62576403872685   -7.13556122844315
O          -8.35250038293774   -3.93271037365415   -6.03736512546118
C          -9.56281833251364   -1.37524272057218   -6.42992973594310
C         -10.36745210107094   -1.57911572904312   -9.64664233534050
C         -10.36399580667597   -2.36432934865638  -10.91193302070437
O         -10.74922207008990   -2.04223347719934  -12.01485247434027
N          -9.74193892282125   -3.58633918445512  -10.64636292316102
C          -9.60362319658367   -4.62095022442549  -11.63256186217639
C         -10.84039497624065   -0.26559165455881   -9.46057187524910
C         -11.75181795137668    0.43262644879465  -10.20685303406250
C         -11.85422699021554    1.88686091769241  -10.20853024686662
C         -11.31833802476062    2.76034184027226   -9.29724942569354
C         -10.58729963958760    2.39749035032297   -8.14799841044572
N          -9.98670487594754    2.17203286802536   -7.19417940560407
C         -11.46137432500607    4.16242907762392   -9.36578191016858
N         -11.53754041810905    5.30776000039275   -9.35457542436063
C         -12.63884304995843    2.24989462460181  -11.38081844850922
C         -13.12619614099124    1.06936928330279  -11.98672793657870
C         -13.88504239255870    1.13089250268088  -13.14281868586541
C         -14.15693861907167    2.37607623931789  -13.69044809949129
C         -13.68797690110681    3.53686568083984  -13.09220601916223
C         -12.92615839258054    3.48780890224809  -11.93422679816531
C         -12.70319722301058   -0.06853802956546  -11.18561643186449
C         -13.28459075373064   -1.30781170222823  -11.19071836887637
C         -14.26565807818294   -1.71583935661214  -12.11711376292677
N         -15.06584550772081   -2.10684435151036  -12.84104527376762
C         -13.03189461052771   -2.29821480257239  -10.22264810690914
N         -12.87909212118958   -3.12036216317295   -9.43507601325135
H          -8.13349135272488    2.56584668172489    3.21322392105372
H         -10.39512193243489    3.40201192699125    2.75676091872587
H         -12.17471048572017    1.88231351874247    2.01246388063404
H         -11.73362166163844   -0.52332096418644    1.72086477164553
H          -5.71951734062707   -2.27727101900908    2.40571002144285
H          -8.47084643077008   -6.67556597281892   -1.37134481711864
H          -8.27446160104539   -5.25441830113493   -2.43738355742257
H          -9.48057817644265   -5.22594399635815   -1.14645216722258
H          -3.66276435203329   -5.52624589660386    3.38143279636404
H          -5.05749811220462   -4.48604261853675    3.76806884396413
H          -3.73378034920033   -3.86267878489054    2.75786852037672
H          -4.86327048169029   -8.63945544590401   -0.09535320713062
H          -5.06733809020934  -10.23812180342818   -2.07315076718266
H          -5.62848906979038  -10.22677001911252   -4.59266914854019
H          -6.33145691343470   -9.55947066886324   -6.89467495242814
H          -7.35762743550095   -8.29737854063351   -8.89343448269817
H          -8.37679244654860   -6.16061426343191   -9.53429041301756
H         -10.62217388949985   -1.11927189881866   -6.38201911808363
H          -8.98875280161871   -0.47671002564908   -6.66166254626107
H          -9.23894714832050   -1.77055521292516   -5.46800524610753
H         -10.01052893222579   -4.23191583045519  -12.56590335260005
H         -10.16529682482726   -5.50963756945830  -11.33775886164347
H          -8.55270323245530   -4.87970582828734  -11.77587087787497
H         -10.35743303905755    0.26942019551418   -8.65481852309099
H         -14.24541273644072    0.23441450002359  -13.62040219362585
H         -14.73992239634083    2.44021429470997  -14.59654119862363
H         -13.91321496721447    4.49501826655057  -13.53515657595281
H         -12.56478071339043    4.39946397442461  -11.48744346705911
