102
 SCF done       -184.488849556130          0.000774019258
C           0.41645441253856    0.31352327642865   -4.16169049068226
C           0.38366220133867    0.25331769420041   -5.54715157069204
C          -0.68271668330486   -0.33187178024464   -6.21478009187672
C          -1.75447020051150   -0.86625754375982   -5.51515482521604
C          -1.73201304016291   -0.81152363598278   -4.13209539499656
C          -0.64206505234545   -0.22635628033150   -3.44832782635945
C          -0.87010020506618   -0.33652528702916   -2.01240463426597
C          -0.07395989020107    0.19293974625616   -1.02997374325121
C           1.08332869216825    0.96120420952395   -1.27669517195963
N           2.03373737745294    1.59300838172729   -1.40070529216623
C          -0.30108063764009    0.07834251994899    0.35674862335573
N          -0.42067016402860    0.01999816855516    1.49809138412306
C          -2.07386700565025   -1.13737472429577   -1.84027644009981
C          -2.70786629292007   -1.24620123835505   -3.14597776181560
C          -4.04857549319784   -1.41649355870104   -3.37124231647889
C          -5.00202575008728   -1.50261071646131   -2.33557681652685
N          -5.80500398931070   -1.51918091091971   -1.51498742240117
C          -4.63724769535821   -1.41587583526137   -4.65158937643463
N          -5.16652455507098   -1.43454361850484   -5.66982766768223
C          -2.44925887567325   -1.73549444847924   -0.66608897379305
C          -3.26924172423799   -2.86505486406342   -0.47883453184346
C          -3.83431060338673   -3.27538531728215    0.73153346492640
C          -3.75016154104167   -2.49474587009105    2.00320755374268
C          -2.51015965268489   -2.89528027540546    2.80820286642495
C          -4.48647867338085   -4.50003289999074    0.63003901715788
C          -4.42993172561716   -5.07510874482273   -0.62944290449781
S          -3.55832877650641   -4.05329641642116   -1.72757649644397
C          -4.95990581099654   -6.30241391079137   -1.09852805961774
C          -5.65918547795265   -7.17806308970887   -0.33249947243575
C          -6.20373118702566   -8.40132885230523   -0.79346074674996
C          -6.15747090520168   -8.97440927529450   -2.05546492875123
C          -6.82917746595821  -10.19263078639825   -2.10532599040866
C          -7.39712957011450  -10.55976269993947   -0.86980461019060
S          -7.09807828721288   -9.40296684356896    0.34593062759364
C          -8.05813355134655  -11.80088560838418   -1.02777710499400
C          -7.91648594202429  -12.22050722375231   -2.36235090474745
C          -7.13847620838065  -11.22435726459211   -3.08357626851530
C          -6.78114230899267  -11.25085573898804   -4.39902225853459
C          -6.00837106859514  -10.22511240693475   -4.98352991343977
N          -5.37586591445761   -9.39222898763551   -5.45335033886385
C          -7.16769515352547  -12.30057356377242   -5.25949889287837
N          -7.49176238078824  -13.14834624666977   -5.95977488603055
C          -8.53902418511814  -13.43873725758709   -2.61514590733400
C          -9.16402331964447  -13.95935203709841   -1.49088601675681
S          -8.96100080028572  -12.90840074130137   -0.09520886070822
C          -9.87750518745618  -15.18491174884985   -1.44239302924365
C         -10.59266795948646  -15.78859887356727   -0.40978306890973
C         -10.73654581805599  -15.26362280649724    0.98312338551622
C          -9.53851379458170  -15.66665997169401    1.84582590825112
C         -11.15198216842540  -17.00462881688217   -0.80131020484082
C         -10.89484971688771  -17.36644997749165   -2.11220609137008
S          -9.92262786406015  -16.15271778282973   -2.89259653035370
C         -11.30922493758973  -18.54336054495850   -2.76742420897846
C         -10.98576171959649  -18.86387546265221   -4.05110781746434
C         -11.40750128453712  -20.06236937571826   -4.65656953840128
C         -11.00463938890476  -20.54217097802115   -5.87502025640324
C         -11.71510746023187  -21.55237469810432   -6.64763018335306
C         -12.63675786614687  -22.45322317324482   -6.18387495749335
C         -13.03339055832174  -22.59129400647389   -4.83719726102507
N         -13.40059208021706  -22.76159190233916   -3.76235884317311
C         -13.28776117874552  -23.40759645848136   -6.99398161210665
N         -13.85041916766384  -24.20899961614331   -7.59285605456349
C         -11.25216362585763  -21.42948509600747   -8.02382079578052
C         -10.19268367464628  -20.49455167614060   -8.06787938736212
C          -9.58703988571246  -20.17083527434359   -9.27033876278981
C         -10.04075764473906  -20.78734858249817  -10.42708138963200
C         -11.07248547666996  -21.71403538567075  -10.38441434831459
C         -11.68801394358883  -22.04516355311781   -9.18635393165758
C          -9.91911395875512  -20.04724185959390   -6.70965133065731
C          -8.74684376985271  -19.48672986565229   -6.27606316632942
C          -7.70548724353760  -19.08494116236214   -7.13991346244285
N          -6.83102327525671  -18.73240265006166   -7.79402985165513
C          -8.36892801368868  -19.36725508878967   -4.92110125625789
N          -7.98083604337299  -19.30374136532444   -3.84259243437456
H           1.25545199749844    0.76878810869369   -3.66180343038846
H           1.20537400368209    0.66631875002149   -6.11203651232256
H          -0.68012840950956   -0.37397840382622   -7.29319569238634
H          -2.57598634635984   -1.32489627095551   -6.04147307392941
H          -1.99316967245632   -1.36473891490464    0.24153414359464
H          -4.64333802321383   -2.69668009260468    2.59678548054866
H          -3.72046386015176   -1.42590524832087    1.79140518983027
H          -2.52359994770505   -3.96132243640061    3.02424492891477
H          -2.48748812209973   -2.34884775797886    3.74681484179958
H          -1.59974745038549   -2.66547833799473    2.26016000139705
H          -4.99309268042947   -4.96002745556782    1.45910022933847
H          -4.78329857678947   -6.52641638049166   -2.14088030541024
H          -5.83539836058379   -6.94938813352464    0.70913771937320
H          -5.65864839361080   -8.51889523003786   -2.89047042157633
H          -8.54978713901315  -13.94101025442083   -3.56566070994866
H         -11.64599212288082  -15.68099163157920    1.41911960028830
H         -10.83805485535748  -14.17677627738582    0.97483682402401
H          -9.45972588388285  -16.75003634776435    1.89530128643745
H          -9.65626937192840  -15.27924544810579    2.85418319923946
H          -8.61267709982364  -15.27545018274060    1.43129928365623
H         -11.73763473063379  -17.62101763209599   -0.14192804967550
H         -11.88660911685927  -19.24223023464891   -2.17547240697356
H         -10.40569318563078  -18.15511891544054   -4.62657368390754
H         -12.17550178351540  -20.61093129697825   -4.12850470898928
H          -8.78931312676453  -19.44746582255890   -9.31746147074159
H          -9.58332737750821  -20.53967721052318  -11.37268107268101
H         -11.40711320488537  -22.18350731667799  -11.29679434316119
H         -12.49183737133748  -22.76270336717738   -9.17272499200458
