128
 SCF done       -238.833561921888          0.000866347136
C          -9.93983246878021   -0.48581167738953   -9.76890717747458
C         -11.32538284904404   -0.48339733222117   -9.70480728736576
C         -11.99689521497644   -1.01977640249395   -8.61421851837029
C         -11.29992127410877   -1.57239399527727   -7.55075561688783
C          -9.91626603275908   -1.58777897929905   -7.60802773427995
C          -9.22709006013172   -1.04498600166965   -8.71931942238133
C          -7.79231201798928   -1.19580769025752   -8.51389271479390
C          -6.79432106536621   -0.67022838394079   -9.28526192965918
C          -7.01692250364528    0.10491130461092  -10.44400710854285
N          -7.13868798843599    0.73623634759989  -11.39418074983303
C          -5.41621441866024   -0.79421684655741   -9.00316023571863
N          -4.28371349675209   -0.85465100290972   -8.82487063851676
C          -7.63302615488993   -2.01562127733766   -7.31273030189951
C          -8.93130247050300   -2.03208896641653   -6.63931442613284
C          -9.11045024396338   -2.18480907058557   -5.29122554033362
C         -10.36346881638429   -2.33903328978245   -4.66826356228237
N         -11.35225243385460   -2.54755463873106   -4.12374905149803
C          -8.03712976554121   -2.09367778177046   -4.38395227721238
N          -7.20881551358719   -1.88776075215133   -3.61676197735233
C          -6.54074094432233   -2.75650355223169   -7.00439169384042
C          -6.43595300733425   -3.84847706608344   -6.05135869747786
C          -7.24802572032776   -5.04725374381844   -6.22168385505417
C          -8.49101473459469   -5.07663568238983   -6.86718780866879
C          -9.17590712145513   -6.25731005347896   -7.04526926461271
C          -8.63281564279291   -7.46636725646221   -6.61569839535725
C          -7.36766545961180   -7.46719879520779   -6.03163139428584
C          -6.69141677253031   -6.28370283846350   -5.84721526788009
C          -9.40870194966935   -8.70674667427146   -6.81755870023719
O         -10.51564272602467   -8.75017760214708   -7.29553932158124
O          -8.76300846700041   -9.81051343299020   -6.41046780168096
C          -5.39597951042618   -3.76150708832314   -5.13350308790990
C          -4.29726879047333   -2.79290645162382   -5.39460075264220
C          -3.40553057507229   -3.02732232908663   -6.43947816548221
C          -2.37273327382563   -2.14644782393600   -6.68801563831182
C          -2.22255901225274   -1.01498496519973   -5.89105279126646
C          -3.10751236028176   -0.78381047313440   -4.84077590485458
C          -4.13374240018411   -1.67160299884381   -4.58775391742341
C          -1.14187840843284   -0.03267472371444   -6.13261698928495
O          -1.00505123104841    0.99685162058508   -5.51978458747027
O          -0.29853913804777   -0.39717564162830   -7.10897897135061
C          -5.30833461198029   -4.38927103716097   -3.87236552086679
C          -6.29050008574768   -4.90661480524689   -3.05452072176910
C          -6.07426323837897   -5.27515022235026   -1.70166068566952
C          -7.20655790060617   -5.58719441482132   -1.01219426301878
C          -8.38135804787703   -5.49063108549190   -1.78627630393725
S          -7.99325164762267   -5.05581687440976   -3.43313455338529
C          -9.68890027061751   -5.67366886480945   -1.37505880596867
C         -10.86163153005583   -5.53560939598268   -2.14555004934469
C         -12.00547408604479   -5.75900138097268   -1.43896121156256
C         -11.79427753581865   -6.08548234668093   -0.07740162065139
S         -10.08058812055345   -6.10878739920044    0.27238985659823
C         -12.80132288788713   -6.27386667966426    0.85060100718662
C         -12.64210982195704   -6.57662239667605    2.20780799337953
C         -11.34548892312158   -7.05934370905879    2.71585276745572
C         -10.82507541565669   -8.26697745782225    2.25261958771000
C          -9.69827411995551   -8.80752601894070    2.83893137320029
C          -9.09837899198975   -8.15982015230508    3.91151627660553
C          -9.58713293917385   -6.93285621503095    4.34763831794073
C         -10.69960786097141   -6.37942124809249    3.74636675498301
C          -7.96071025576808   -8.81430147533758    4.64011391270152
O          -6.92698279276615   -9.12212263890328    4.11276932081803
O          -8.20116857697088   -9.03003809946521    5.93213875955176
C         -13.68226389260280   -6.46734914584906    3.13881987671297
C         -14.98108697163251   -5.88789602062617    2.76053117543831
C         -16.15974533746011   -6.55587699390789    3.10384146586529
C         -17.39281149262614   -6.00789809406252    2.82115146743694
C         -17.47344549953715   -4.77658384002004    2.17412166600091
C         -16.30474876833994   -4.12155592163745    1.79353411968561
C         -15.07216434375116   -4.67072119280183    2.08197497225080
C         -18.77377863219569   -4.13809773246409    1.87160287361563
O         -18.90976326658165   -3.15801777877011    1.18444559772846
O         -19.81554046534266   -4.76147854226621    2.44372746321378
C         -13.50218453639600   -6.99077763091289    4.44011939627541
C         -14.26333965760276   -6.75461398682271    5.56240420149337
C         -14.33981497654175   -7.64849450814599    6.70068757771222
C         -13.37119885022646   -8.52222633403508    7.13364593152598
C         -12.06286801332004   -8.59021152113669    6.62872971886583
N         -10.95585964198387   -8.67093944405364    6.32428917735424
C         -13.53629648595782   -9.39546165275901    8.22929989299475
N         -13.62610293906940  -10.13446631480224    9.10289568416796
C         -15.62233600118998   -7.38794661218873    7.34774363468362
C         -16.19591666876832   -6.23330980042014    6.76497897678748
C         -17.42107978392236   -5.75579587910514    7.19259009539777
C         -18.07912848699873   -6.44343344920721    8.20328384347410
C         -17.51716066013242   -7.57225024203512    8.78118647731890
C         -16.28342917106015   -8.05467780723101    8.36543169151052
C         -15.26724985939613   -5.72486941524976    5.76809613404565
C         -15.16772185831356   -4.43565443060661    5.31617396233646
C         -16.14931793238675   -3.45033449430841    5.52538475280177
N         -16.94742958030093   -2.63508797538050    5.65135639357310
C         -13.99241629285788   -3.98617852049212    4.68162685021059
N         -12.99564260384168   -3.61630535044866    4.24805957705215
H          -9.43694480447951   -0.06337823850207  -10.62328708705838
H         -11.88932333965760   -0.05587712135229  -10.51950286256321
H         -13.07566617579160   -1.00677143242254   -8.59188002354180
H         -11.82503174124434   -1.98980640917141   -6.70603985300341
H          -5.62570156060205   -2.52558566900361   -7.53477942116139
H          -8.94281953289206   -4.16982974705862   -7.23321401196896
H         -10.14335555919413   -6.26649556430898   -7.52421674091732
H          -6.92045623068244   -8.40131173056415   -5.73051810096930
H          -5.70014556894835   -6.30659026131255   -5.42112293765712
H          -9.31575431969465  -10.59140404169073   -6.56976064278511
H          -3.52513582415611   -3.90800531356933   -7.05522832478585
H          -1.68741413844915   -2.32181659740929   -7.50109095186653
H          -2.97313392585921    0.09867731974275   -4.23410043479449
H          -4.83077678002648   -1.49440976965848   -3.78320766020797
H           0.37454426006327    0.28984994520964   -7.23267119674590
H          -4.34062240605984   -4.29442083209878   -3.39182219395842
H          -5.08720988393756   -5.27143316716239   -1.27468923425728
H          -7.24040127663165   -5.86922000775323    0.02559112809014
H         -10.82475251252888   -5.26114114484009   -3.18523607739383
H         -12.99607664388832   -5.68778850658891   -1.85121777784151
H         -13.80873775302497   -6.13316772969084    0.48002045694250
H         -11.32929815524451   -8.79188629189547    1.45388569393212
H          -9.29856587898609   -9.75031930916496    2.49792448719017
H          -9.10384739367477   -6.42021586000064    5.16648210921681
H         -11.09184449059272   -5.42970493944348    4.07992595684643
H          -9.13149841487866   -8.82647316039787    6.17290165975297
H         -16.10113535246843   -7.51773438179854    3.59359853990326
H         -18.29768929011729   -6.52564682376353    3.09776942886029
H         -16.38444155841636   -3.17318076310415    1.28468405667402
H         -14.16992850675124   -4.13859780222188    1.82059546802228
H         -20.63583272581798   -4.29300083347360    2.22344679358334
H         -12.72030523083950   -7.73265542201349    4.54521496764595
H         -17.86281023347841   -4.87951708035587    6.74543129338785
H         -19.04156285098587   -6.09251983468787    8.54288194841736
H         -18.04606984264116   -8.08831540964908    9.56778996406088
H         -15.86257999252970   -8.93350751123326    8.82604401740393
