96
 SCF done       -181.019343223340          0.004913331147
C          -7.34443304312132   -6.97953019014581    4.66182540059417
C          -7.23558477605843   -8.35049825124061    4.45797429103774
C          -6.35966889273389   -8.85738406376273    3.51364758667058
C          -5.55835013398893   -8.01689992817968    2.74612977531361
C          -5.64291405836815   -6.65321486298707    2.95089797262229
C          -6.54265029296112   -6.14185008785575    3.91207712111042
C          -6.45309892662556   -4.69229704417034    3.85768393809735
C          -7.35243426054008   -3.76424796751699    4.37280802801824
C          -8.30456750115202   -4.03634844797847    5.36344695772974
N          -9.06959859159406   -4.21744269991841    6.20316824826633
C          -7.43782152027053   -2.53319054419636    3.71805390887233
N          -7.54424521181971   -1.61528324887330    3.02409013587644
C          -5.42112993222224   -4.34188273366614    2.93869922000212
C          -4.93400178802407   -5.52814323569092    2.32361907977334
C          -3.93639765701628   -5.66357561484663    1.36639663957045
C          -3.31686104989114   -4.57279290094295    0.75843007964086
N          -2.88991127516281   -3.65635876461838    0.19905239366671
C          -3.48243567918859   -6.89099577141879    0.85463131785847
N          -3.05838400495326   -7.85569052626287    0.39488508887916
C          -4.92729436885899   -3.00005827909848    2.92111342649865
C          -4.66538526239715   -2.18540741981652    1.87405773473095
C          -4.05037017089473   -0.88531744925758    1.86416748784241
C          -4.06225291034367   -0.33704555576297    0.51207217560865
C          -4.62089134532490   -1.14748275634985   -0.41412182177357
S          -5.27251653895937   -2.61937127480265    0.25529472677654
O          -6.84816013912883   -2.25980037784426    0.44426723537887
O          -3.55442568755211    0.86410832366127    0.25515787577543
C          -3.45931020620623   -0.32104464679545    2.96294887646333
C          -2.81807908278314    0.93266917048367    3.01500518805836
C          -2.14291821790735    1.38108644662459    4.10726443310076
C          -1.43179273844160    2.60351989488568    4.14309953511048
C          -0.66775270277835    3.11289151923901    5.17995904054827
C          -0.05495323388057    4.32601033265949    4.88542007145850
C          -0.34005844775067    4.78553881084000    3.61343299959424
S          -1.38923108563553    3.67870329304640    2.77509787214900
C           0.14550396991686    5.94431729711018    2.95537148147088
C           1.16887125797284    6.79570263898193    3.32710750157462
C           1.44813879688396    7.76862578285219    2.37236494858277
C           0.67432045039125    7.67415154642327    1.22768847428017
S          -0.50564638140616    6.40125061405569    1.41245973621808
C           0.84447960638213    8.48695392908178    0.07141682151326
C           0.56151404306617    8.25899893638172   -1.23533156073687
C           0.12642225652715    7.12570637800735   -2.01809540294022
C          -0.12157445204035    7.51344678404419   -3.38897284801993
C           0.28724631581331    8.77176380567288   -3.70154096658589
S           1.10066335943536    9.54574645752633   -2.37104133387148
O           2.64117023548424    9.17401640817294   -2.54760767272440
O          -0.71150587741622    6.66182564588445   -4.22934436548481
C           0.31256750647157    5.84177486188996   -1.57055733842148
C           0.33877899999361    4.63522108240837   -2.27570111672925
C           0.75291121193829    3.48603611027994   -1.65881982760904
C           1.26605464844722    3.33283679943993   -0.33851174698664
C           0.90100901484877    2.19142626724520    0.45088757591838
C          -0.03408786555146    1.22953550135021    0.12645688817404
C          -0.87915712978428    1.25714701847190   -0.99070102144248
N          -1.68529654094272    1.22022186978056   -1.81581039537341
C          -0.34888616290152    0.12497635563875    0.94022438364509
N          -0.66509773630896   -0.79183782480861    1.55661240047493
C           1.58145542894712    2.29701113730699    1.73618050840799
C           2.33795220156868    3.48595956154017    1.72417609675769
C           3.03696392515028    3.87033208506408    2.85344525771786
C           2.99289812490592    3.05523602258447    3.97795958807133
C           2.26408672198932    1.87929016915849    3.97961920641308
C           1.54305563221638    1.49071618121949    2.85785269728480
C           2.18655324366468    4.12178277957941    0.40883857101260
C           2.96941321024627    5.21069062986158    0.02461765298482
C           3.91763560941118    5.83668264548920    0.85718733648798
N           4.69081595882176    6.44326102666406    1.45585400241128
C           2.99009317180710    5.93293702191115   -1.16226447221159
N           3.13259488131679    6.67632835979025   -2.03923752123571
H          -8.03098327356722   -6.58475371816549    5.39486767225399
H          -7.84426198073860   -9.02394225049413    5.04273778476777
H          -6.29462226427363   -9.92491953580857    3.36404313508599
H          -4.89354141971384   -8.43737818964403    2.00973405407629
H          -4.81382537486979   -2.56021688555177    3.90945001028049
H          -4.65831359202539   -0.98140680414089   -1.47244819571996
H          -7.10682573209392   -1.82251886867771    1.29320452477442
H          -3.44418805283272    1.01469048176398   -0.70164520204669
H          -3.45344334741925   -0.90030149419559    3.87650909377969
H          -2.83939424408568    1.55649434291387    2.13432837897164
H          -2.10079406677793    0.78008250758620    5.00647876654221
H          -0.56119995755930    2.60293273773475    6.12082655632923
H           0.57484859328243    4.86242917807124    5.57131171573773
H           1.71304784799987    6.68869151554597    4.24681663928196
H           2.23744361581349    8.49102248112331    2.47600614034476
H           1.34762452718603    9.42503974508839    0.28274339893382
H           0.17734588442962    9.27698554665068   -4.64032242276551
H           2.89270722014670    8.18644282416907   -2.43725024197474
H          -0.78991157939574    7.04145267297311   -5.11391659140704
H           0.55924740896619    5.74969254533958   -0.52845145534021
H           0.01794755405652    4.60040649405703   -3.30400789505467
H           0.62831604113635    2.56072817455216   -2.20872909287576
H           3.60412261330391    4.78508131465212    2.88376917860059
H           3.54015777693996    3.34838165415171    4.86132173934944
H           2.24969285730289    1.25606881591598    4.86084198949572
H           0.97179605158195    0.57694969063647    2.87310275318520
