95
 SCF done       -207.397179339728          0.000716048869
C          -0.50184502948737    0.13748132797785    3.66475223870167
C           0.15567612750628    1.19050488575019    3.04693981623295
C           0.07589048282610    1.38073175028294    1.67399050099257
C          -0.67237457196523    0.52630570281807    0.87905400974487
C          -1.33524851146960   -0.52818586052616    1.48561556416907
C          -1.24801663878967   -0.73081506954510    2.88232516528971
C          -2.01217583338504   -1.91857501307739    3.23985231062764
C          -2.25445985977037   -2.37025214606341    4.50583022506133
C          -1.80498587987789   -1.71695221032000    5.67546029541370
N          -1.47472796598446   -1.23517114773515    6.66269200266564
C          -2.99871514121550   -3.52381807667444    4.84105471399986
N          -3.57506006205105   -4.45127255773711    5.19305727431355
C          -2.43510527477430   -2.53630801021577    1.98148826157572
C          -2.20616124558257   -1.54785288421584    0.92778040128207
C          -2.90601361609729   -1.44664112895828   -0.24245575083433
C          -3.95217332965353   -2.31858194169641   -0.61368677487532
N          -4.82622696161878   -2.98700746193476   -0.93940615693409
C          -2.71888144440290   -0.40909883014350   -1.18095587260483
N          -2.59887118857350    0.40150392252957   -1.98349253666934
C          -2.85137168598117   -3.82447944631078    1.84739557658211
C          -2.86367938837548   -4.61138183605861    0.66305352810570
C          -3.65378635360153   -5.73634637080502    0.45539756306575
C          -4.62881680295726   -6.11122139255848    1.39814945375986
N          -5.40277611166808   -6.37693535068075    2.19945874391068
C          -3.38411688765648   -6.37647968896124   -0.77882987521672
C          -2.35650396431918   -5.72933681794191   -1.46486789413009
S          -1.73120828248021   -4.35427632908722   -0.65235987450004
S          -1.91838056296393   -6.43246691873507   -2.98228051330750
C          -3.13803852018739   -7.63490731770893   -2.71089601155840
C          -3.84485174818259   -7.50469145091265   -1.52066587672863
C          -4.81083985584388   -8.53793754958167   -1.38409113270021
C          -5.65317695737234   -8.68583268727901   -0.26945383471294
N          -6.33477413981996   -8.82461670507973    0.64202874138032
C          -4.79888855958041   -9.42190148997521   -2.45685705037571
S          -3.60463746668946   -8.98787589585308   -3.66018243039524
C          -5.63450228998031  -10.56380260171094   -2.65237102094634
C          -5.41364593227042  -11.63126173787122   -3.51614525039594
C          -4.24047250481179  -11.76718236807755   -4.27630636056178
N          -3.26236041383232  -11.87640392222009   -4.86522508076162
C          -6.46057475645603  -12.59130965681256   -3.47381878862082
C          -7.44838716237684  -12.21282636871380   -2.56928289486875
S          -7.13612590171990  -10.72452089376774   -1.76978464006432
S          -8.77010268165042  -13.32179356760524   -2.41001267364215
C          -7.99232334087340  -14.32778415888201   -3.58655074696023
C          -6.78688260170163  -13.84051665621691   -4.08185405100400
C          -6.23565988641662  -14.72732139238851   -5.04602753821305
C          -5.06188396533004  -14.46889242413629   -5.77148442227454
N          -4.12161154579453  -14.24996285342632   -6.39106147935434
C          -7.02374116523141  -15.85680309006826   -5.24586641286055
S          -8.46900786804648  -15.83630659336207   -4.25771683648798
C          -6.75738433531415  -16.95773378953555   -6.11357293444281
C          -7.61727422037210  -17.99772271046101   -6.45161595258301
C          -8.92276367451028  -18.13512964056559   -5.95520553809240
N          -9.98514222361718  -18.27410070967190   -5.54505746122431
C          -7.01581375494000  -18.93772946699905   -7.33152006047182
C          -5.69698282134360  -18.59539040170966   -7.60827117977683
S          -5.18429103403004  -17.13463501594716   -6.86322620479407
S          -4.84316897181198  -19.70989356384110   -8.62444532518105
C          -6.28506348556134  -20.66589417988356   -8.69488870703770
C          -7.37116773181295  -20.15293123800186   -7.98597936189598
C          -8.50565525157184  -20.99389075479744   -8.11027924227667
C          -9.80528336571089  -20.69144799860032   -7.67332723378382
N         -10.89318579124779  -20.47015251175908   -7.38436759756643
C          -8.24121847185971  -22.13194121705430   -8.86645434088374
S          -6.61435437246726  -22.14450389336378   -9.49788803885544
C          -9.12318938309683  -23.19281876564200   -9.22398355892695
C         -10.16291818915416  -23.68159469748404   -8.50132360937572
C         -11.24758933127137  -24.49260592377162   -9.06480215650774
C         -11.20921869060203  -25.23711078417140  -10.20881913398031
C         -10.07667991855322  -25.39333615770636  -11.03807533432359
N          -9.19007976396018  -25.56592799652575  -11.74609448630214
C         -12.29685535110769  -26.00109208535770  -10.68844316246290
N         -13.13845671395341  -26.64313869373023  -11.12992078355067
C         -12.37470454002542  -24.35912365404949   -8.15531629577552
C         -11.94571753717997  -23.68433134042510   -6.98856542675076
C         -12.83709810456142  -23.39218889732916   -5.96978907532856
C         -14.15762112907885  -23.78810860812388   -6.11766535427747
C         -14.57840435819246  -24.46619376377936   -7.25430157631373
C         -13.69660993197981  -24.75727294667734   -8.28414667374575
C         -10.52461222330838  -23.41316243638243   -7.10711172449176
C          -9.66544996430336  -23.19862560417072   -6.06828548364864
C         -10.07694522843360  -23.08763159463395   -4.72114206480956
N         -10.34323630043115  -23.00376108287204   -3.60916462873421
C          -8.26254540395851  -23.13552508825247   -6.19428301882937
N          -7.11600515148129  -23.09898037540444   -6.23830704146656
H          -0.42242491710750    0.00355574162489    4.73079833290579
H           0.74209084565136    1.86970646983890    3.64635187236257
H           0.60381213972744    2.20327921911844    1.21669821817875
H          -0.72161435041303    0.67653308620698   -0.18728217857782
H          -3.14789400266252   -4.36457013052905    2.73877958144113
H          -8.94478205546826  -23.61009064218402  -10.20653207996408
H         -12.52193611814039  -22.85011177235818   -5.09345253354109
H         -14.86864375784013  -23.56084940775548   -5.33846550524361
H         -15.61127746734721  -24.76564749544514   -7.34514030123822
H         -14.04353834784275  -25.27166719650331   -9.16538224571111
