73
 SCF done       -156.974978023073          0.000732735688
C          -1.85862069376891    2.30030661235176    3.32575897212138
C          -1.97463239389587    2.41806166547034    4.70255156970898
C          -2.97685230894942    1.75484048849061    5.39759003746240
C          -3.89769129129455    0.95813462085453    4.73438359913511
C          -3.79183648775401    0.83186489215612    3.35867819095986
C          -2.76702619997802    1.50093314900194    2.64884482919856
C          -2.87915060746657    1.17628811480450    1.23361002907062
C          -2.16351834674475    1.73464285374240    0.21288664198346
C          -1.18372553948842    2.73646422057681    0.39312464030035
N          -0.37884677882396    3.55000388941380    0.47140796510468
C          -2.32052466782300    1.43110262804729   -1.15843729632003
N          -2.38942311650012    1.24228712945867   -2.28797354215702
C          -3.90483403469916    0.13906232168891    1.12634883061441
C          -4.61114848069992    0.10374767041670    2.40479834346276
C          -5.89688683626090   -0.32238014908063    2.59533474697901
C          -6.75407102755512   -0.73316344121813    1.55038770997197
N          -7.50989361568626   -0.99383697794338    0.72742369113125
C          -6.55297080914640   -0.28960430817129    3.84495789105371
N          -7.11626074292146   -0.29317564439325    4.84386288863026
C          -4.06086307396280   -0.71019694763441    0.07490658455553
C          -4.76819530657091   -1.94195520849036    0.08515219418314
C          -4.94356395347505   -2.87339750782500    1.21246455494814
N          -5.57420446351021   -3.96622503638552    0.90762921142495
C          -5.88999367520922   -3.85834492456889   -0.41485028447886
C          -5.35832448079466   -2.60370443702169   -0.96647437944804
C          -5.67716348254532   -2.49174935354406   -2.36741889964953
S          -5.26953802645541   -1.26290287833478   -3.37557785250986
C          -6.40245566941017   -3.70480377676227   -2.65571331422575
C          -6.52514798165075   -4.52465556552542   -1.43038475255363
N          -7.21158901791090   -5.67339613444657   -1.68611928331303
C          -7.51165031790133   -5.63272378563923   -2.94996902470703
C          -7.03650117293157   -4.42564721843663   -3.63674036468687
C          -7.22134310050629   -4.16659439353597   -5.02153582302913
O          -6.75236023567472   -3.00966409844233   -5.56733718231144
C          -7.06435697752967   -3.09359311862002   -6.87441808577282
C          -7.73431582935950   -4.34103254942228   -7.07413373215725
N          -7.80300778091050   -4.96868130929266   -5.86582178845539
C          -8.18158917720470   -4.74527537263514   -8.32364985621470
C          -7.92395256312570   -3.84877786418931   -9.34622639043096
C          -7.25631144690102   -2.60482240899113   -9.11730493363426
C          -6.80558384057705   -2.18500889178253   -7.88155718918375
O          -7.16018867789772   -1.97667695913578  -10.30593878100715
C          -7.74651117020320   -2.82767201321073  -11.20248169977867
N          -8.20416221559671   -3.92573655748775  -10.68162737758584
C          -7.78591479523297   -2.44834886922200  -12.57923710376474
C          -8.30376004143675   -3.26688772201540  -13.51836046695393
C          -8.36821737161281   -2.98991284687810  -14.91544634997675
C          -7.97790876806489   -1.86511697396211  -15.62165479876675
F          -7.45270825280770   -0.77558281868687  -15.05453001255535
C          -8.18467522565400   -1.96695470134309  -17.00580495292660
F          -7.87641813728799   -0.99805506747434  -17.86662170021117
C          -8.73607634992883   -3.17472765259440  -17.38268749976539
S          -9.00341924958819   -4.18323929023094  -16.00976710191280
C          -9.06343080928418   -3.62382140625413  -18.69829847278607
N          -9.56345065146386   -4.78451026816521  -19.00521556556697
C          -9.69971064353216   -4.77098770164540  -20.36559250532777
C          -9.25645482259469   -3.55114546742434  -20.82386806955843
O          -8.85586221526074   -2.82865033332752  -19.77568207352564
C         -10.23102259433285   -5.90707328629131  -21.11117468096574
O         -10.36413668437808   -5.93782053069458  -22.30617363922722
H          -1.07089046144236    2.81812991050522    2.80383017917964
H          -1.26995446736813    3.03353159243938    5.24026514523043
H          -3.04140764859553    1.85771819185078    6.46978403681613
H          -4.66772214596709    0.44195062572668    5.28451349004619
H          -3.56372387649804   -0.47967088182542   -0.85908770126754
H          -4.54476065058363   -2.73446428545745    2.20276952966405
H          -8.05959117020196   -6.42327289776414   -3.42959439237445
H          -8.68317207955536   -5.68246568862538   -8.48470828966594
H          -6.29985834851654   -1.24967710110085   -7.71724540556260
H          -7.36654036117116   -1.48165612945813  -12.81030321844634
H          -8.69808431054612   -4.22257014592999  -13.20330992910999
H          -9.18783918826031   -3.12735985482724  -21.80464719152107
H         -10.50765106173979   -6.75332982348262  -20.45904254808833
