113
 SCF done       -245.688884697016          0.000712797796
C          -7.07057540383433   -2.34500200593603    6.23015290004862
C          -7.54959927753759   -2.00210824869659    7.48504501925122
C          -8.16992393551420   -0.77919314112559    7.70739137111547
C          -8.33647495445202    0.13349562868085    6.67801607204053
C          -7.86614125703840   -0.19876017972362    5.41677962863208
C          -7.22444301580505   -1.44016280129780    5.19020554833008
C          -6.79910567352927   -1.51158944283238    3.80257383728525
C          -6.26646690661328   -2.59006320471963    3.16346622941305
C          -6.07095911153843   -3.84932856173897    3.77753554752561
N          -5.89481566406095   -4.89378916128308    4.21651902820661
C          -5.85627544488997   -2.62450816904587    1.80959359198844
N          -5.48356309912046   -2.73179635305746    0.73037799162861
C          -7.04339211477758   -0.17927361816065    3.22867733536800
C          -7.92283091775312    0.53102688155564    4.16572024181299
C          -8.75432206359837    1.57172263701178    3.86960015790875
C          -8.96799847499485    2.07990877469631    2.57256655897597
N          -9.21057545203769    2.50409784659945    1.53381370309515
C          -9.57488776610216    2.21855681017604    4.82226269212934
N         -10.24702377488475    2.79440183867855    5.55079337734384
C          -6.39832660891198    0.31811955880940    2.15853736934998
C          -6.36453905659611    1.69403307010690    1.69011689922681
C          -6.66311423772610    1.97881732253216    0.35653578479913
C          -7.14643655954362    1.05259122027436   -0.69069247510077
O          -7.37510016552515   -0.12052285887766   -0.61274148931137
N          -7.32271161489016    1.84465912840163   -1.84090405907491
C          -7.08614944035822    3.19248982273404   -1.58962290130094
O          -7.25586640129502    4.10620581391566   -2.35440075339554
C          -6.63270548274802    3.26316189340322   -0.17384770716507
C          -6.25708225916187    4.35495324492454    0.58777391062902
C          -5.92195054052667    4.08602763239775    1.90899844267147
C          -5.97965623003027    2.80385403995119    2.46149160926745
C          -5.57642253106785    2.74687791688340    3.88165558753656
O          -5.52309650906197    1.78915676399737    4.59779560391218
S          -5.15841680669666    4.39506420357878    4.44724031458787
C          -5.47584104926098    5.14204219317046    2.84289018469038
O          -5.32595187275611    6.30099222695642    2.61326479542528
C          -7.65752673651961    1.22349478626383   -3.03349554151596
C          -7.60633997732413    1.67728812877169   -4.28902185751510
C          -7.13828288390301    2.93777775924298   -4.83174928535804
C          -5.93761363705534    3.57530612238311   -4.48741675611339
C          -4.90143477816168    3.21506481272730   -3.49451965862325
O          -4.86027561079024    2.29810220456692   -2.71330299554392
N          -3.91669780605889    4.21111925169722   -3.57300143979152
C          -4.22660480063181    5.17927250765142   -4.54238769646965
O          -3.55052521245135    6.11980589745088   -4.85296073329973
C          -5.53417077097841    4.76625271847330   -5.10004568330382
C          -6.28092899774855    5.41251831198086   -6.06521369446412
C          -7.47129519687443    4.78721609428745   -6.41821856557717
C          -7.88170009643676    3.58814156075049   -5.83960608263038
C          -9.18528231546024    3.10175006069948   -6.33872783184154
O          -9.78704395674792    2.12309263971781   -6.01075806869800
S          -9.80350926457653    4.23765576575210   -7.58615800665779
C          -8.39749428706803    5.34453863221051   -7.42823982993588
O          -8.27558129814772    6.34975108668740   -8.05531724347197
C          -2.81649415141034    4.19873840478866   -2.72694592352523
C          -1.92337516540964    5.19294056072885   -2.70013811450715
C          -0.75540119698033    5.37389695290569   -1.87147177014404
C          -0.43401869969929    6.69735243665888   -1.52998456102936
C          -1.25048400731026    7.90764928823698   -1.75642114379171
O          -2.40643428365352    7.97987871721935   -2.08017995328817
N          -0.41830354545895    8.99042460465894   -1.43348999219321
C           0.79820422926563    8.56381410553400   -0.86840766201984
O           1.66248704928725    9.29321382871058   -0.47538920738198
C           0.75221228521807    7.07775772847753   -0.90939014588492
C           1.68704113528208    6.13720614305866   -0.51594314405706
C           1.36778353111992    4.81281034437481   -0.79542489839691
C           0.20079401840956    4.42240324649164   -1.45949185708589
C           0.13988245279357    2.97249408644245   -1.73648675121704
O          -0.71181520468425    2.35331005245810   -2.29860666222328
S           1.61653448930641    2.17600594893879   -1.08235147331072
C           2.29332293577249    3.70909438218465   -0.45338034495334
O           3.32688171281469    3.78996826141381    0.13525366432802
C          -0.63136298843268   10.30263019664911   -1.81565874834893
C          -1.73768104145494   10.70848548670918   -2.46312648785142
C          -1.89462808552832   11.99834198382785   -3.03904332143400
C          -2.81073165049793   12.27863500325255   -4.00649822983294
C          -3.23717913884286   13.62116923167089   -4.39913602294856
C          -2.53941353461686   14.78366204962589   -4.23197359551688
C          -1.23685035614777   14.86847328258562   -3.69277892820910
N          -0.17638681877419   15.00154185841871   -3.27495710871762
C          -3.01262668817965   16.05534538916209   -4.62306064703917
N          -3.33990996548933   17.11517826838045   -4.91589196278368
C          -4.54772009889049   13.47635197329459   -5.01482386316162
C          -4.84013203988667   12.09948355241090   -5.15655048276689
C          -6.04487814419598   11.68988688208450   -5.70538762976391
C          -6.95171014569228   12.65697181290218   -6.11151434926469
C          -6.66233019781581   14.00822713248593   -5.98022758824295
C          -5.46093817605102   14.43210906298713   -5.43303244203957
C          -3.69677941836702   11.33176293374575   -4.68601674883885
C          -3.42415557165708   10.02907779871728   -5.00769192815052
C          -4.34260272652357    9.16918386201009   -5.64801893425396
N          -5.06095440158026    8.42016547927701   -6.13742313129075
C          -2.17056405121953    9.39970319357423   -4.83660723090238
N          -1.15757509373684    8.86370089829498   -4.77621276563881
H          -6.58234857409636   -3.29364416925927    6.07861498892144
H          -7.43150386419115   -2.69628681632172    8.30280719469890
H          -8.52513763132435   -0.53268229800601    8.69605483558483
H          -8.80821217380358    1.08432580168163    6.86512887700018
H          -5.80786557859999   -0.35688032869650    1.55097623378669
H          -6.22671894390989    5.35844572052573    0.19404630337854
H          -8.00866807215555    0.21472424774783   -2.85256142560902
H          -8.02892975984470    1.01463645393648   -5.03319953588722
H          -5.96764741240267    6.34985147720231   -6.50080928745857
H          -2.79469706314171    3.32814657236738   -2.08616738776724
H          -2.10667803671867    6.04107696067297   -3.34636255349588
H           2.61590089362285    6.39892624354419   -0.03517533815209
H           0.22281981535534   10.94471254071995   -1.64180340260614
H          -2.55089047117229   10.01072713949941   -2.58931026972165
H          -1.27732606746574   12.79533833075516   -2.64945346635752
H          -6.28587254005226   10.64443871511256   -5.80725679547208
H          -7.89598146911287   12.35119199724434   -6.53506379740734
H          -7.38298738826267   14.74287165935925   -6.30501200057257
H          -5.25358361379708   15.48485626238572   -5.33304206375604
