83
 SCF done       -176.257109075282          0.000761966103
C          -3.75862492607228    2.86833457278864    3.51886249715364
C          -2.60292311455834    3.49237649018441    3.07688034151670
C          -1.83544137890477    2.94345775115903    2.05831317436490
C          -2.20914209239436    1.75901975993978    1.44354911651105
C          -3.36471517082753    1.12656664892714    1.87390716671753
C          -4.13976025522543    1.67615504404460    2.92202576313147
C          -5.26059880463466    0.79220441542330    3.19963539778665
C          -6.29218404773325    1.03487392362169    4.05909889693329
C          -6.43066952181610    2.22134936635950    4.81463785935011
N          -6.60464236995302    3.15542653624199    5.45706661908589
C          -7.38235077386460    0.16650383339781    4.29320521425563
N          -8.29280270643852   -0.48740002677360    4.53798622260885
C          -5.05475262610739   -0.41135086754798    2.38397078685378
C          -4.01472239631635   -0.08275871901194    1.40430311256393
C          -3.84424815221509   -0.65982016508241    0.17895454193510
C          -4.72101039888133   -1.61375346106347   -0.37866454683092
N          -5.44361719701242   -2.32946609979836   -0.90996794106378
C          -2.82420773716453   -0.29074441673381   -0.72483594543716
N          -1.99916417337579   -0.04868113544790   -1.48395524576073
C          -5.59913386997811   -1.62160128335718    2.64397345579817
C          -5.21643870421013   -2.88871634037362    2.06470480575595
C          -6.15466923416631   -3.81264714353434    1.68828828655296
F          -7.46487779420894   -3.66633389866154    1.81814514909711
S          -5.53159915849049   -5.20382440755814    0.88160442885215
C          -3.94671162330230   -4.55881532619544    1.10767235863317
F          -2.89318454539789   -5.25984562408409    0.69959029296755
C          -3.88866322469322   -3.35797031667348    1.75923646549115
C          -2.61440659420432   -2.80583701807047    2.16711447152830
C          -2.39181322157088   -2.02858466161731    3.23306532862366
C          -1.05672190243110   -1.59887189377223    3.61581819710854
C          -0.78145325294940   -0.34304884555042    4.06841897488431
F          -1.68411312658524    0.61037667322811    4.30949658131653
S           0.89805283839996    0.01445428921409    4.28387523703642
C           1.24552822314871   -1.60797796416486    3.78899567032423
F           2.50503480969744   -2.03222145066897    3.78711391532503
C           0.15310372934601   -2.37064949197978    3.49332198637526
C           0.26453018049115   -3.79944219605563    3.25326654245534
C          -0.64359260283021   -4.68790207162635    3.67192075285627
C          -0.53568047507138   -6.12157088241235    3.49107051398091
C          -1.61774016837605   -6.90837301831150    3.23480602079552
F          -2.88316727204474   -6.49573946032556    3.17078093733847
S          -1.25637693226462   -8.57581738995802    2.94225138349665
C           0.40821151732373   -8.21274393990611    3.21789657422094
F           1.28548438268974   -9.21275168345175    3.19283435684948
C           0.67787798880956   -6.90183303714791    3.51990106796238
C           1.93981401225041   -6.37686505067253    3.95558074897183
C           3.14652061436360   -6.96670995042192    3.80512294922755
C           4.32083774319673   -6.38743672030609    4.35353492983267
C           5.60267787839902   -6.77584638577659    4.10275162283847
C           6.75491866553800   -6.46227641874778    4.94502491253626
C           6.85311620779988   -5.45660699187921    5.86604569849427
C           5.84858543373547   -4.50359109343785    6.14270375950288
N           5.07702094514491   -3.70164125854959    6.42453913079448
C           8.00032246697790   -5.21431079447517    6.65297647183927
N           8.89856029447428   -4.96272647095129    7.32094983626122
C           7.78364711593242   -7.44080042283855    4.62110115810751
C           7.35048269937241   -8.21788909901012    3.52132443593601
C           8.13963262557856   -9.24318642045996    3.02677223854914
C           9.36231952618554   -9.48849799134808    3.63327538711617
C           9.79358193509282   -8.72147603856149    4.70669366599371
C           9.01297651757169   -7.69220529863839    5.21070187585375
C           6.06033387707260   -7.71160188147338    3.08140657384001
C           5.49938583635371   -7.89160305067741    1.84656089033626
C           6.00753833070173   -8.78498662545044    0.87907837607149
N           6.36991391627973   -9.50993117285282    0.06730498778422
C           4.42983396420885   -7.11574660881503    1.34749476081859
N           3.60691120160946   -6.46755037512145    0.87926290343548
H          -4.33450075769553    3.30237692031346    4.31919738935209
H          -2.29157211922969    4.41576132202648    3.54026653175124
H          -0.93226079262067    3.44225518181356    1.74167820570209
H          -1.60066736641443    1.33514905138709    0.66102189090897
H          -6.40898676396733   -1.68139030174488    3.35945920285588
H          -1.77101245673032   -3.15503941088541    1.58584644856613
H          -3.20427096212429   -1.65391949802561    3.83938418448039
H           1.17310010715798   -4.12260768192391    2.76422648882949
H          -1.56138579351237   -4.35034071110128    4.13308071216221
H           1.89140968686448   -5.41584424418268    4.44979844680800
H           3.23094956740930   -7.91014654115854    3.28766882346140
H           4.15951637447762   -5.61898137329922    5.09708630985787
H           7.81194133846491   -9.84944283103219    2.19787088860486
H           9.98501508906750  -10.28878254750628    3.26415023780804
H          10.74979066803236   -8.92963547505274    5.16157904924113
H           9.36145024955329   -7.11058080672470    6.04821108829773
