96
 SCF done       -186.180355692785          0.001166643361
C           0.77221761606625  -11.44551172082009   -6.16372865967575
C           0.90683093387593  -10.64143547844652   -7.28485464619958
C          -0.14853120141898   -9.86138878819145   -7.73855012399605
C          -1.37123131702627   -9.86412114770828   -7.08503748757177
C          -1.51669911281581  -10.66002435574346   -5.96125451305474
C          -0.44337069794822  -11.45441541365990   -5.49625397385548
C          -0.86873590136709  -12.17550835440470   -4.30637631111656
C          -0.17596300624451  -13.16284013110512   -3.66360844490237
C           1.10222752910051  -13.61716784334294   -4.05740104890662
N           2.13991434284484  -14.03023026735985   -4.32017479386768
C          -0.65057981082399  -13.89962518986937   -2.55649535650214
N          -0.98283276987516  -14.54237958763061   -1.66551499200328
C          -2.17865484616176  -11.63465707865945   -3.94033502475069
C          -2.66176608134203  -10.87294399175259   -5.09035947770976
C          -3.97338160139156  -10.65030723898164   -5.41146915405528
C          -5.06369325954281  -11.11968322587451   -4.65112261299051
N          -5.98705094060194  -11.51622793828220   -4.09631131239777
C          -4.38990571088989   -9.94748652545849   -6.56080473180315
N          -4.78734209543067   -9.35712323814770   -7.46084268316513
C          -2.73272862544065  -11.72559630611747   -2.70135784238839
C          -3.76061127416342  -10.91432588007354   -2.15184782221444
C          -4.65725006964544  -11.34222817390722   -1.06612797316927
N          -5.47093447296785  -10.41709797813067   -0.65402353365390
C          -5.18151069857731   -9.31203701053502   -1.39110856782963
C          -4.10321564463546   -9.59436660052473   -2.35327605562318
C          -3.74792038314081   -8.37925409229426   -3.05008427430298
S          -2.47707472619009   -8.13522936151558   -4.07781375819925
C          -4.67204657794379   -7.40383620015492   -2.56165244454853
C          -5.52699311579535   -7.98780041701959   -1.53345118983402
N          -6.38893301138367   -7.04970031309782   -1.03467384418107
C          -6.11815339540964   -5.94684899940179   -1.66138359687337
C          -5.03883674367372   -6.06176196478011   -2.65587835057098
C          -4.52606875764444   -5.10630476159248   -3.53538312065703
C          -4.77361861287816   -3.74958509902756   -3.57562512304765
C          -4.25372320736974   -2.86454253275574   -4.54848348086995
C          -4.59745260846865   -1.55698134673250   -4.35972848106364
C          -5.39117005142312   -1.34301581507083   -3.21530554686332
S          -5.72020939867150   -2.85223396997094   -2.40827942913926
C          -5.84429021613613   -0.12849362578582   -2.71070076085540
C          -5.64216360014702    1.15682320213342   -3.25100778869250
C          -6.15777995572689    2.15934880480119   -2.48111508450021
C          -6.79160895485808    1.71684069331437   -1.29687720825997
S          -6.73027851122353   -0.03029785652175   -1.21259760214855
C          -7.31932559623994    2.55295162151717   -0.33430809194805
C          -7.93795000818205    2.22353762519252    0.87235101669168
C          -8.35675056033286    0.91598611626654    1.40329959895955
N          -8.90735206179244    0.96653274304506    2.57726662952126
C          -8.90019035526620    2.28599066326464    2.93991607432019
C          -8.31376370325700    3.10503852905303    1.88608194003230
C          -8.28722605741044    4.48060081483280    2.27836689603612
S          -7.73146044956070    5.78102433202071    1.43471332907073
C          -8.85533771459057    4.47592739740875    3.60828796519213
C          -9.24123236759350    3.11627087546784    3.98676854002970
N          -9.77219971717023    3.10305895170791    5.24137344998504
C          -9.77724621860129    4.34029031915558    5.63936107349510
C          -9.20950742138565    5.28578723250631    4.66377636469766
C          -8.96823344278612    6.67273485980598    4.84445054472851
C          -9.69536586713076    7.52089071138841    5.62256372777089
C          -9.23325190252186    8.80671251006771    6.14168300212510
C          -8.17522398357308    9.54575335791414    5.69210321052244
C          -7.34568391736754    9.20831152035229    4.59919481372139
N          -6.62818436240639    9.00256050626667    3.72765863250779
C          -7.78312381040053   10.78335491807945    6.24899115035044
N          -7.41178956766387   11.79172361168334    6.65085941403522
C         -10.11366495361030    9.14460850716531    7.25177175893487
C         -11.16576340317322    8.20074341690361    7.31113744563919
C         -12.13412709318501    8.28219981118112    8.29868323271125
C         -12.04734052280370    9.30920877561482    9.22642500422958
C         -11.01994104079239   10.24088984978749    9.16624271959134
C         -10.04578671700916   10.17090052803633    8.18183557231712
C         -11.00877916621907    7.26780251412263    6.20808755135888
C         -11.98447549937627    6.47544203653192    5.66793536831592
C         -13.26114425660787    6.30548765034487    6.24555846755749
N         -14.30572732218740    6.12960517197865    6.68542833351162
C         -11.87672923181742    5.83194641186698    4.41512280392932
N         -11.87454857886900    5.36006377180323    3.36900530092771
H           1.60353377699580  -12.03973402774720   -5.82101323029520
H           1.85023707327385  -10.62057678693831   -7.80888036095879
H          -0.01592189938049   -9.23968678267690   -8.61084365272585
H          -2.18071336145045   -9.24513656692500   -7.43651743094945
H          -2.31175485992962  -12.44108527913888   -2.00593658119411
H          -4.67797646033368  -12.33175288146837   -0.64559918295994
H          -6.68407686428400   -5.05663320156043   -1.45032254008804
H          -3.83261604170259   -5.48091914510798   -4.27977771984725
H          -3.64440360176054   -3.22151948322234   -5.35963198902035
H          -4.29017145641823   -0.75287652002287   -5.00313981727782
H          -5.12422082379451    1.31387572849806   -4.17946550951554
H          -6.09572907301341    3.20518042541395   -2.72397808540214
H          -7.21014304180348    3.61489878735061   -0.52383162751490
H          -8.25711518364469   -0.02806925749130    0.89714308396659
H         -10.11374365730915    4.59395992039188    6.62971527121177
H          -8.07666678094509    7.04787383792223    4.35756990461203
H         -12.93183893406697    7.55950724953835    8.35859287752324
H         -12.78902045887177    9.38132203143729   10.00695351849036
H         -10.97352075491905   11.03219666371548    9.89877710462738
H          -9.25314018260985   10.90040074487040    8.15382135424582
