110
 SCF done       -187.069688517601          0.000812347319
C         -10.83023599937725   -5.97890634435868   -9.78445017133687
C         -11.99053538032461   -6.62652711640493  -10.18085764379901
C         -13.23849925863044   -6.14697788534215   -9.80772242580084
C         -13.36396772908897   -5.00822894339529   -9.02679335975709
C         -12.21281554545325   -4.35552112317475   -8.61542139428934
C         -10.94301915011923   -4.84465703739181   -8.99800383697111
C          -9.92504251605759   -3.97442067079529   -8.42947280973145
C          -8.62924175385177   -3.85353867281380   -8.86036870979583
C          -8.04375737666194   -4.69212097625726   -9.82871576600738
N          -7.51320204480645   -5.36289837070225  -10.59487742448684
C          -7.75247583815447   -2.84623043301620   -8.41114332546981
N          -7.00553581396847   -2.03560821700787   -8.09118992407335
C         -10.60147442325878   -3.08442694594515   -7.50039728628090
C         -12.02680100096636   -3.16127786838297   -7.80469870768544
C         -13.00192510421879   -2.27064871145932   -7.44467644974525
C         -12.77894502344392   -1.03148582342378   -6.80991004381215
N         -12.67836735682802    0.00699811614764   -6.32990812145570
C         -14.36961079410918   -2.44482409753862   -7.73548063219411
N         -15.49913319256794   -2.53670682026674   -7.92151799398682
C         -10.10179346106773   -2.40528688583395   -6.42450650144711
C          -8.88644090451209   -2.57744662891838   -5.72653063021902
S          -8.41215877378253   -1.27218243866172   -4.65701946352239
C          -7.06698340980305   -2.15890980803926   -4.09481493139075
C          -6.98804120496361   -3.40080726732219   -4.65586048980530
C          -8.01396611877524   -3.64791334044766   -5.59137478746806
C          -8.11209827877164   -5.03623093934659   -6.11976808994294
C          -7.97473393002875   -5.98619481662478   -4.90999724556145
C          -6.59537145127683   -5.85360781692180   -4.25398418484381
C          -5.96310235542206   -4.45285644938182   -4.40130720111478
C          -9.16205919172002   -5.67306020619381   -4.01737621940755
C          -9.07775244962665   -5.06076773076862   -2.83691173225673
C         -10.43235056525151   -6.02095564244422   -4.62783523067878
C         -11.55396935490318   -5.25964976633337   -4.60826350581902
C         -12.78300241912421   -5.52928515251338   -5.28518562598191
C         -13.70740533128539   -4.54079655046854   -5.19027037298013
C         -13.27710477987401   -3.41737237535919   -4.44242683196178
S         -11.65930309556581   -3.68789807915354   -3.81527043225684
C         -13.93107832741451   -2.23018496278465   -4.20425642226820
C         -15.23682595732355   -1.84135062862054   -4.59519071974073
C         -15.54748908213093   -0.56573215331956   -4.25235704023167
C         -14.51065757054135    0.13409289054201   -3.57522299311315
S         -13.12886575342016   -0.92369949715191   -3.35953533902404
C         -14.56486261439373    1.43445827609193   -3.16185741574798
C         -13.54782805730861    2.18855892216465   -2.54243467374024
S         -11.93362132413989    1.56667513101681   -2.26612938989813
C         -11.43089540424453    3.05087056070633   -1.56153653393681
C         -12.42821867793010    3.97885393540966   -1.54150843257730
C         -13.63106816483438    3.49783845152887   -2.09615825149986
C         -14.79519102994490    4.42470109720934   -2.08333117226341
C         -14.95833012910373    4.98982577004457   -0.65221614937966
C         -13.63533687647328    5.54347780195929   -0.07227326954914
C         -12.42027109204707    5.36370153782385   -0.99471008696012
C         -16.05334599979420    6.02923268161827   -0.65649923657158
C         -17.32129784027463    5.71847560825582   -0.38686177291650
C         -15.65954105838131    7.34154737394960   -1.13208666224529
C         -16.07596620734530    8.55828692094045   -0.72222919970288
C         -15.83657020224504    9.79580509453952   -1.47454356995691
C         -14.82671274920230   10.02253674287062   -2.36808300158031
C         -13.80106768117203    9.09958359213367   -2.66538036485248
N         -12.93565527423776    8.39279498656549   -2.93026242034134
C         -14.64982734195591   11.23664358651004   -3.06597789252095
N         -14.45855557178550   12.19798702976519   -3.66237677604330
C         -16.85649126175452   10.73848352641574   -1.05351809350973
C         -17.55694274899110   10.19430121632033    0.05009508093766
C         -18.59634808783105   10.89798017943906    0.63922720503466
C         -18.92978843695991   12.14082035214902    0.12546942006848
C         -18.23858117586890   12.67873851058337   -0.95316792644015
C         -17.19827149371408   11.98734690955957   -1.55225068068899
C         -16.97411943529788    8.90646298405486    0.38340487733401
C         -17.07507376080415    8.26378801454977    1.58413614309397
C         -17.91715401514412    8.69193913133536    2.63271879541281
N         -18.59633609773135    8.98834817071019    3.50877931423484
C         -16.28727380733243    7.15606350773529    1.96435053248421
N         -15.63267590754744    6.30395342344559    2.36603199700121
H          -9.86531946409252   -6.36213697415543  -10.07552093586442
H         -11.91967819220990   -7.51707744055373  -10.78655282017707
H         -14.12765204703266   -6.66813315862466  -10.12863048559781
H         -14.34041274647253   -4.65043213893739   -8.74464907804001
H         -10.75670105617110   -1.67103193617452   -5.97067809564272
H          -6.39877209248293   -1.71779974354765   -3.38114024199323
H          -7.31098542465259   -5.22845368501854   -6.84103166849477
H          -9.07155353305233   -5.21817395784405   -6.60371911134042
H          -8.09067511419614   -7.01495419036785   -5.26924258913532
H          -5.92172601273234   -6.58165920813388   -4.70904388358017
H          -6.68030764074973   -6.11592157258916   -3.19957758428355
H          -5.28375018903243   -4.46021581975162   -5.25901742160170
H          -5.37243725731924   -4.20510118993817   -3.51918164812469
H          -8.14271520320397   -4.75341223238100   -2.40576599817174
H          -9.95318064677349   -4.87190913001530   -2.24125139614260
H         -10.45906997390060   -6.92198951291626   -5.22888991041935
H         -12.92469139694421   -6.44686433463960   -5.82962229319085
H         -14.67767409053876   -4.56921990751028   -5.65464063437694
H         -15.89641996029069   -2.50740293200462   -5.12171177585053
H         -16.48588239498656   -0.08919602822229   -4.47527608319863
H         -15.49479604079396    1.95719299864839   -3.34688102454477
H         -10.42383825548487    3.15102123266001   -1.20838953191121
H         -15.72025502486233    3.93367040615582   -2.38581232494811
H         -14.60008208159000    5.24267685793856   -2.78327661758428
H         -15.29365374373943    4.16047842688448   -0.02372116227334
H         -13.43495389904153    5.03426214302967    0.87064166276715
H         -13.74308095596931    6.60485512001935    0.15946345500686
H         -11.50293511415783    5.56496382123686   -0.44184107531563
H         -12.47556887236434    6.07751405178948   -1.82202857830147
H         -17.60322798474121    4.72035616146876   -0.10051961704803
H         -18.11998021240070    6.43750256206134   -0.46716487523468
H         -14.97094400136012    7.31272013078848   -1.96645427385768
H         -19.14494403262663   10.48827472552340    1.47183492780594
H         -19.74030282722673   12.69722387133713    0.57059365305278
H         -18.51715827521206   13.64916952155987   -1.33435868750582
H         -16.67575564854581   12.41417622244471   -2.39278065082019
