113
 SCF done       -185.910986790483          0.000943689010
C         -15.37759763643463   -8.44819572011548   -0.90332620221197
C         -15.81305467412393   -9.42036582900138   -0.01539763493802
C         -14.96107654657669   -9.94790307332726    0.94454466335450
C         -13.64940562449689   -9.51049355814638    1.05018531194189
C         -13.20382625862498   -8.53973238811833    0.16906668681564
C         -14.06602723434997   -8.00809955692867   -0.81725376467861
C         -13.33367944537963   -7.02840253143724   -1.60910611578221
C         -13.85300580068260   -6.25611720904190   -2.61672494578178
C         -15.19649982521890   -6.30656128384262   -3.03479412739157
N         -16.27347187985223   -6.29482483525710   -3.43566304214906
C         -13.13012172428659   -5.29399891050261   -3.35055867835673
N         -12.59295755382629   -4.49879817462546   -3.98269164576929
C         -11.95257318473971   -7.07063934212267   -1.15350318824027
C         -11.91980899015750   -7.86694878827299    0.06457377495201
C         -10.98430532014554   -7.76266303665663    1.05986609292580
C          -9.92358540311553   -6.83359621040940    1.02895059373921
N          -9.08976568560155   -6.04502837226949    1.06010303136295
C         -11.03112796533628   -8.49062910713443    2.26517621212394
N         -11.01403876140360   -9.06791830260624    3.25709925005012
C         -10.89139237061847   -6.53527250333711   -1.82968017050677
C          -9.53609539153270   -6.92060650109721   -1.77572364597094
S          -9.03165314184453   -8.53907433557950   -1.33376041968267
C          -7.41728783460693   -8.18656516523256   -1.76999268546992
C          -7.24522178966974   -6.90490634703282   -2.20911510654863
C          -8.45362613028668   -6.17858815789450   -2.22564993347126
C          -8.51229959906781   -4.73921262921054   -2.59973689121883
C          -7.31769478832119   -4.35970120232569   -3.48387600683987
C          -6.03411268145148   -4.80645810565732   -2.77561714908150
C          -5.95024794622729   -6.32895086911030   -2.68336242154652
C          -7.46021143929563   -4.90566091483869   -4.89366053219592
C          -6.43780387155932   -5.16299765349583   -5.69762451400204
C          -8.82999713423227   -5.06683426572494   -5.40909504099426
S          -9.71137564755523   -6.55731494891734   -5.20703107223383
C         -11.05953385398285   -5.91263256350187   -6.06423872446741
C         -10.84565204526922   -4.63975737691887   -6.47928363589927
C          -9.55988202768546   -4.15344787758728   -6.10941078239534
C          -9.05172609051070   -2.80862893599603   -6.53165748040837
C         -10.16640274170499   -1.89177576867100   -7.04029436444299
C         -11.09663368991223   -2.68378413533063   -7.97284064945124
C         -11.82850727546087   -3.78142146518503   -7.20506419525294
C         -10.97689091955264   -1.21367467450049   -5.95622148333830
C         -10.94545981731925   -1.56655964973128   -4.67425707998170
C         -11.84506429949442   -0.14953300945568   -6.44571926891516
S         -11.31016451212370    0.88753604149409   -7.74620799476363
C         -12.84139528859751    1.66193513321471   -7.81458189652676
C         -13.71754181880882    1.16048826067805   -6.90568796821658
C         -13.14072178841861    0.13903122415128   -6.10052182222951
C         -13.92259950997272   -0.52581667806934   -5.01480647572447
C         -15.43441230197386   -0.43733841721561   -5.24765358934846
C         -15.81316787193827    1.02174885302233   -5.54258370459562
C         -15.16692501287718    1.52996013103609   -6.82798161059832
C         -15.91374797371079   -1.38654262985229   -6.32300535874861
C         -15.15881924215919   -1.82114405025470   -7.33135488940931
C         -17.32568971715408   -1.74594887478111   -6.27099072920221
C         -17.83382187806928   -2.97855858884910   -6.48917925690826
C         -19.21903629028197   -3.28917277573671   -6.85011238557815
C         -20.32211445333834   -2.52841044375992   -6.58811265364773
C         -20.29631567597982   -1.31539820104380   -5.86547181814948
N         -20.33423949447948   -0.32505767566598   -5.28679994585649
C         -21.63473421658877   -2.87589593992601   -6.97446739726891
N         -22.72156276005992   -3.10492427588496   -7.26270144639139
C         -19.18356660375751   -4.56619576425918   -7.54868398793922
C         -17.87907170643572   -5.10885349033554   -7.46121202083044
C         -17.57574113019161   -6.32811906460757   -8.04519736323543
C         -18.57801611867217   -6.99979316465731   -8.72669853660185
C         -19.85944149135181   -6.47055896000910   -8.81517343430989
C         -20.17727416772851   -5.25579929567354   -8.22779594135923
C         -17.07136019792825   -4.22212516909218   -6.64898217490665
C         -15.95046725698382   -4.54094953343590   -5.93968280089647
C         -15.18206977384285   -5.70494183478951   -6.12866712758160
N         -14.49234352093151   -6.60771411264201   -6.29430663761152
C         -15.53202972640910   -3.73189857187513   -4.86226761772489
N         -15.25566281737462   -3.14418150681262   -3.91702921595443
H         -16.05339604180316   -8.05226884358760   -1.64331220750790
H         -16.83176391885355   -9.77196784672380   -0.07625390746043
H         -15.32195611237420  -10.70897206231572    1.61936048059910
H         -12.99313981129272   -9.92945078516202    1.79579674342581
H         -11.10816020621408   -5.79222032989719   -2.58581070838955
H          -6.67277060030399   -8.95328538594942   -1.67812609060310
H          -8.48218765257374   -4.14735314739120   -1.67873561116055
H          -9.45684947511578   -4.50619091427961   -3.09625506035828
H          -7.30195963445715   -3.26485514023655   -3.56945927576793
H          -6.03891737544057   -4.38520086027421   -1.76814551371470
H          -5.15469438723574   -4.41912032087278   -3.28997601405197
H          -5.14122417430565   -6.62353592162945   -2.01183124755742
H          -5.73031310967770   -6.74810211171876   -3.66937221173170
H          -5.41114870320754   -5.02658532723617   -5.40691759005053
H          -6.60170779366862   -5.52156573305670   -6.69979424995330
H         -11.93482700014842   -6.51666995333150   -6.19924174516988
H          -8.33555547767652   -2.96100200961515   -7.34676068778027
H          -8.50485291226192   -2.32698133614512   -5.71847368370057
H          -9.69648479577901   -1.09388157820606   -7.62990801244764
H         -10.49792077545147   -3.13366015371300   -8.76820873674613
H         -11.81828719664932   -2.00965113328639   -8.43888267407932
H         -12.43453058730582   -4.39025915453918   -7.88005409033343
H         -12.50127970128567   -3.33340200239537   -6.46667806824352
H         -10.35485392005677   -2.39429953915054   -4.32788974299167
H         -11.50502719908262   -1.03852066259111   -3.92433358994586
H         -13.00537403049141    2.43635023973222   -8.53743100245841
H         -13.70635647859234   -0.02173508108065   -4.06763076615137
H         -13.61417753187478   -1.56655045717752   -4.89962644894606
H         -15.93075057264761   -0.73331002312880   -4.31679088512226
H         -15.47216628554864    1.62845287359114   -4.70124366709614
H         -16.89707930411628    1.13125816878623   -5.61076013797093
H         -15.28481966922298    2.61331934593931   -6.90280977917247
H         -15.67680906561714    1.08821490697091   -7.69158517644720
H         -14.13052098794593   -1.53425013519816   -7.44294828452876
H         -15.56103416149072   -2.46060586837568   -8.10133780380010
H         -18.00880337500072   -0.92008116359247   -6.12202027614105
H         -16.58176308069830   -6.74146681022839   -7.97824898187211
H         -18.35926291377958   -7.94765873188858   -9.19428027557096
H         -20.62374724293224   -7.01371941538693   -9.34963521296204
H         -21.17766037606726   -4.86214093677056   -8.30546302363769
