112
 SCF done       -207.773647448080          0.000485039596
C         -13.21664051133716   -4.84213929392754   -5.01841759139001
C         -13.92920590704380   -5.98361823427085   -5.35515006007043
C         -13.88300781567085   -7.11926857018074   -4.55869693392472
C         -13.12630058676845   -7.14515378374048   -3.39658926149049
C         -12.40895398817177   -6.01235417575745   -3.05157012776073
C         -12.44896150310654   -4.85582728319623   -3.86455218168969
C         -11.59768759158265   -3.83224882971391   -3.27248879579621
C         -11.49365366405215   -2.52939499787472   -3.68144879754757
C         -12.20852757064319   -1.98163030735613   -4.76798348402319
N         -12.76094550372379   -1.47507711013605   -5.63694862815427
C         -10.70419452043233   -1.54836736286981   -3.04671167823075
N         -10.08484351352464   -0.71090150271360   -2.56212604818676
C         -10.89565244906809   -4.46635017579371   -2.16206060184854
C         -11.57175477014560   -5.73050513309740   -1.89725620723615
C         -11.63707452037653   -6.35988877576724   -0.68319253460529
C         -11.05369037033666   -5.83375719437848    0.48841118009969
N         -10.63657117802667   -5.39663702454612    1.46459526814021
C         -12.37326569732301   -7.53890425078952   -0.44884118075474
N         -12.94334826018603   -8.50591826977432   -0.21103200523033
C          -9.75827419136365   -3.98102636321516   -1.58375840515716
C          -8.79320890285946   -4.68121506253867   -0.82304155795690
S          -8.50123075883401   -6.39469479252949   -0.98943751336707
C          -7.17200043255214   -6.34857545853235    0.13111474837067
C          -6.96822598637440   -5.05214332850595    0.59176070312171
C          -7.86284627434421   -4.12080203178239    0.04108927992016
C          -7.75881581367241   -2.67366730397621    0.40257566454958
C          -6.42436477326017   -2.12716491512132   -0.08079708018341
S          -5.05428270906963   -3.21209385279892    0.47275709462544
O          -4.45991362661490   -3.81957878658277   -0.68468931471864
O          -4.19616396463054   -2.48084256734642    1.36243696876310
C          -5.86456378865384   -4.55693849189854    1.43715150325728
C          -6.49537905408205   -7.56629082446611    0.40126847614112
C          -5.75006765855331   -7.84735005066198    1.49915759318674
C          -5.02350086980289   -9.05325702502140    1.70727338947221
C          -4.30384265323821   -9.26091890903719    2.86549226831234
C          -3.51822272312989  -10.37735695200894    3.12880307214663
C          -3.38511917335484  -11.45932013238274    2.15146288846819
C          -4.01763022643079  -11.48077312072407    0.95694663803866
S          -5.05056224651092  -10.23277919216572    0.40318131864261
C          -2.48509112879127  -12.38871684943877    2.73887576491634
C          -2.06782462482436  -11.92692983103448    3.99128345742047
C          -1.18986171749155  -12.84402912335262    4.61324956424798
C          -0.96431862799361  -13.93478255711584    3.83492203952664
S          -1.80307242322692  -13.90726295494362    2.32322125107914
C          -2.70974106612541  -10.66365706182148    4.25393402931749
C          -2.60146831940182   -9.84361508569701    5.39489685218867
C          -1.67797689539105   -9.96526038782947    6.38903168581387
C          -1.64312322897658   -9.13658971491502    7.53127376042921
S          -2.90616035632796   -7.98512994643161    7.83897889985418
C          -2.13064812987126   -7.44710863500080    9.29922124085278
C          -0.92955233282000   -8.13597046655694    9.51146955998715
C          -0.66899102970065   -9.10220463318204    8.53676209442549
C           0.53542012010370   -9.99743203459716    8.49859800620728
C           1.15429127342683  -10.19735942525976    9.86539413356031
S           1.59379850601921   -8.53984579647356   10.45454591672275
O           2.23351543428941   -8.61894451910343   11.73635242267466
O           2.27508234494243   -7.84124660781107    9.40234420559498
C          -0.06271282526414   -7.82638977750479   10.68212402339126
C          -2.73483359543767   -6.49960893710528   10.14286798866710
C          -3.98562014321807   -5.98956088468237    9.93817185714380
C          -4.60488565960670   -5.10250299786181   10.83161575374887
C          -5.93032699854821   -4.73842722165957   10.80416338759169
C          -6.49215646634592   -3.55670149089938   11.43821143997359
C          -5.92344253556670   -2.79371943541013   12.42462876585331
C          -4.68329528898401   -3.05679668686977   13.04233225864554
N          -3.68799998711269   -3.21471866584878   13.59331276678718
C          -6.52864762821169   -1.65294887509243   12.99213282629018
N          -6.96222292916504   -0.71790746167964   13.49772561733098
C          -7.79329653208565   -3.32682427157134   10.82101634661514
C          -8.07713837081016   -4.39637993661064    9.94146161898886
C          -9.25291652054921   -4.41586446871240    9.21035771528365
C         -10.14381154768424   -3.36316450271529    9.36017953596364
C          -9.87082006675037   -2.31654031009048   10.22855446443757
C          -8.69698008732098   -2.28689273166692   10.96758129607062
C          -6.98910784857797   -5.35972167791566   10.02758359671350
C          -7.06024791023033   -6.67816845059189    9.65256762832874
C          -8.11510630365468   -7.22510232932301    8.89413575086334
N          -8.92197350407477   -7.72319537006309    8.24644143885686
C          -6.15899021354460   -7.67976938225315   10.07152331094692
N          -5.50225530950044   -8.55005422280019   10.43208379347028
H         -13.26188110738165   -3.97088989329435   -5.65099515206143
H         -14.52664471184654   -5.98600314078821   -6.25388522621840
H         -14.44231207455180   -7.99632666620620   -4.84607058787834
H         -13.09113181395278   -8.03369039837266   -2.78706884911744
H          -9.49891515207606   -2.95178658598229   -1.79158018821329
H          -7.82556900107631   -2.57249713128953    1.48917649148359
H          -8.57603663082108   -2.09524972895897   -0.03064832548420
H          -6.21373582723816   -1.14087423093319    0.32061670677980
H          -6.36367029530021   -2.11585936182579   -1.16545178633623
H          -6.19342554656040   -4.11176826815356    2.37303146217419
H          -5.08104213518888   -5.28619596162156    1.60988273763828
H          -6.63524987396595   -8.34102112710641   -0.34257961396383
H          -5.69699250248909   -7.13606085107912    2.31026807548661
H          -4.35272548654936   -8.47891867084092    3.61134093866714
H          -3.90684805521763  -12.29310012517166    0.25609579043492
H          -0.74953473356244  -12.73065924142662    5.58637502028888
H          -0.34293372859297  -14.77991996392850    4.05815092494273
H          -3.31449855407773   -9.03235937546936    5.47439718090827
H          -0.90268018818205  -10.70923842068158    6.30195162240971
H           1.29014592243035   -9.53328615997448    7.85479097183813
H           0.26578051675004  -10.96387001164051    8.06633179124281
H           2.05974659137685  -10.79595523991448    9.82214582105266
H           0.46469747900073  -10.61618161372089   10.59281671645846
H           0.07521221348902   -6.75393408060818   10.80664029203916
H          -0.44625592738221   -8.24931211752134   11.60990210995954
H          -2.20100960674861   -6.22503312779576   11.04241849364553
H          -4.51541910919313   -6.28613649244431    9.04259048975455
H          -3.96232167912471   -4.62876263503466   11.56063368726873
H          -9.47478135570304   -5.22163580138577    8.52949388632830
H         -11.06124117731993   -3.36179714573565    8.79167756354866
H         -10.57969242641075   -1.50931118957822   10.33203529605157
H          -8.50138779944098   -1.46450808476988   11.63570952715165
