109
 SCF done       -209.459423666523          0.000806593862
C         -14.99511180529152   -1.66358141797314   -3.42420497140290
C         -15.46101941419034   -0.75362481001559   -2.48671163546873
C         -15.07025934488738   -0.83221640846419   -1.15789593767560
C         -14.20546177805852   -1.82741341864385   -0.72802211232288
C         -13.72795130684251   -2.73799141597651   -1.65578787802536
C         -14.12160028263439   -2.65703683444294   -3.01086382106772
C         -13.46559772243446   -3.72421934707192   -3.75779090524414
C         -13.68067366441831   -4.03239343489397   -5.07441908865346
C         -14.58545722166671   -3.34431811708068   -5.91017960658710
N         -15.30058091370968   -2.82853811246439   -6.64553681273101
C         -13.07372777891259   -5.09312780952146   -5.78070374490579
N         -12.63706221071608   -5.93227321399480   -6.43113638476257
C         -12.53988420292197   -4.36964772689013   -2.83712463254222
C         -12.85511787283108   -3.89097079452275   -1.49977362981428
C         -12.60702144913513   -4.54837045762873   -0.32037584148143
C         -12.02251808787744   -5.82745395759406   -0.24136519020182
N         -11.59207650314002   -6.88469853160951   -0.11453709105501
C         -12.86047751593251   -3.99943206057176    0.94891778640272
N         -12.97389251971999   -3.56436841478884    2.00659443546532
C         -11.48974294857017   -5.16217545710651   -3.21409787922023
C         -10.32245200351173   -5.45227427645754   -2.46314141799532
C          -9.78738002819915   -4.61128275622920   -1.45402422655270
C          -8.66767493362315   -5.00488840911638   -0.65547348394984
N          -8.38890220807954   -4.29348827075385    0.45428713075148
C          -9.02913537046916   -3.19251053337001    0.71398095684726
C          -9.95002820608299   -2.65952924692808   -0.24523862145091
N         -10.32508159833626   -3.39288368199201   -1.25403583984481
C         -10.51986805699847   -1.28938733543796   -0.11705171639131
C          -8.75877785635571   -2.50393902388748    2.00669429010224
C          -7.94442640125526   -6.18975274282481   -0.91868774934177
C          -8.38274249728372   -6.95756385457284   -2.01305165271929
C          -9.55662021836347   -6.59686376751372   -2.76985153247990
N          -9.81485075338633   -7.47465397269380   -3.73829116403695
S          -8.67691122899324   -8.60734251806294   -3.72245660034964
N          -7.80928552895129   -8.06472286199818   -2.49273171402795
C          -6.88602981140755   -6.63388484767718   -0.05534224782187
C          -6.79136904810447   -7.97920194036465    0.37209617289898
C          -5.76770653772699   -8.40655704574038    1.26581116555405
N          -5.68974420579638   -9.71140883860550    1.59071812146798
C          -6.57046024232549  -10.55947309343717    1.13176845477645
C          -7.67321545344539  -10.09918966087849    0.34723468488013
N          -7.74465504446748   -8.85020111964668   -0.01095331185808
C          -8.77577197826563  -11.00674866867423   -0.07727303503771
C          -6.40020088080729  -11.99679485612582    1.48384043509544
C          -4.80303100564809   -7.51138365016100    1.83903948610441
C          -4.89022522967727   -6.16839848765445    1.38342680040445
C          -5.91742093374903   -5.75124246087888    0.45235227940762
N          -5.79362889089099   -4.46626531634960    0.11333478910518
S          -4.55577135491496   -3.83281545003972    0.89959426852322
N          -4.08942291810866   -5.15311421496427    1.69797208348420
C          -3.92739902462402   -8.06878881207447    2.78533585779236
C          -2.89774373760529   -7.56131994740682    3.55033040084477
C          -2.25702932783719   -6.30652240596485    3.60960580924265
C          -1.26139087002515   -6.23199592138391    4.54108931601413
C          -1.07054266162688   -7.42098303307117    5.27631208036197
S          -2.17150248899326   -8.64871051969122    4.73211547064649
C          -0.17242930073524   -7.63747016697531    6.31659957103144
C           0.78249031949833   -6.73949201472509    6.83009054030775
C           1.49668986499565   -7.24228191273261    7.88157545714663
C           1.13096374267802   -8.55432671999154    8.24911329052773
S          -0.13666452002867   -9.14380601293118    7.19796638034109
C           1.65406171647279   -9.29079023893607    9.29804150058331
C           1.21031623020261  -10.56570011036680    9.62701399495227
C           1.67169171805022  -11.31174461907892   10.69525953771750
C           1.22478424151364  -12.62321298700917   11.08630298683730
C           0.29110864209706  -13.41035130305867   10.45070297964545
C          -0.09693733764052  -14.68975031588690   10.89412802186341
N          -0.45787180282250  -15.73676899506026   11.20001714324079
C          -0.40816299070379  -13.07247243606071    9.27539254208646
N          -1.02098609311423  -12.88114853050623    8.32198016117890
C           1.94775407672751  -12.99604251350420   12.30150347134073
C           2.83450822870054  -11.94577911065851   12.64116164516843
C           2.70270270474620  -10.85806132496240   11.64915108201988
O           3.32298904780292   -9.81199690178472   11.64541509125847
C           3.65530433767871  -11.99376017686381   13.74033873254015
C           3.59810573323138  -13.13501694529911   14.54824915992721
C           2.70844530587682  -14.17816645655940   14.20281417702935
C           1.87859219544126  -14.12932324398123   13.08831463802167
S           2.79286584956148  -15.49217700395720   15.33732797626550
C           4.00768663507661  -14.63308854547384   16.24659361627687
C           4.33387674347316  -13.42493992644692   15.73016928108520
Br          4.72794991564502  -15.41126660897415   17.79434480326473
H         -15.31043232280168   -1.58655465556311   -4.45161064409903
H         -16.13761511232135    0.02698780000748   -2.79943714939489
H         -15.44369751562828   -0.11084804031514   -0.44698115585078
H         -13.90898567332965   -1.87929331955744    0.30699860715176
H         -11.49445453993357   -5.58980956881357   -4.20799512786152
H         -11.15477659546055   -1.07377389584369   -0.97212290211966
H          -9.72215385875756   -0.55058690625022   -0.06303407981674
H         -11.10843425835096   -1.21652320796015    0.79678715966273
H          -9.68296389583797   -2.40845570221598    2.57530801134811
H          -8.36253192072583   -1.50460486248656    1.83337827729452
H          -8.04132496753022   -3.08306011573949    2.58051754485226
H          -9.54017907183664  -10.42610792908730   -0.58498759881929
H          -8.39503124568274  -11.77279035660119   -0.75150151227310
H          -9.21363142490235  -11.50474817003323    0.78595919872233
H          -6.36092781157189  -12.60459670951373    0.58144774967314
H          -7.24281198363023  -12.34086533532557    2.08208810161736
H          -5.48287677553215  -12.12787455980886    2.05029835946424
H          -4.14065757489809   -9.11907481409970    2.95469906801559
H          -2.55610366681802   -5.50416863398432    2.96130429528561
H          -0.67199780520035   -5.35082517319438    4.71991095324069
H           0.92377647862129   -5.75591281399104    6.41989524033050
H           2.26759001065503   -6.70754855888387    8.40704452196991
H           2.43215626984647   -8.83645632323585    9.89453495628108
H           0.43498708800050  -10.98957419556606    9.00070565597185
H           4.32065265460336  -11.17671055112235   13.97153779340799
H           1.21752689187444  -14.95118872605886   12.87059926029793
H           5.06205649622690  -12.76362426816402   16.16318683415946
