72
 SCF done       -150.820449923486          0.000707524947
C          -3.08153504852228    0.53528736172570   -1.06985236115733
C          -3.39760348040394    0.37968659310399    0.23831635310998
C          -2.84506089934056   -0.78191413573637    0.87441712670345
C          -2.07284010703338   -1.57276853305619    0.06532876522948
Si         -1.98395715620307   -0.85398099360802   -1.67707314107890
C          -1.43252346942603   -2.75754990277009    0.45196547993744
C          -0.66378345960812   -3.51734690724068   -0.43986461255923
C          -0.09568991636409   -4.70622900611141    0.13617124425941
N           0.64190415208137   -5.53307610639952   -0.61399072610380
C           0.82707427319510   -5.19744985250440   -1.87305469778731
C           1.63208193658047   -6.12386268873796   -2.70412012903923
O           2.07580487267072   -7.17555455932882   -2.27996185978763
C           1.85486081626300   -5.68747497045255   -4.09010249834681
C           1.34859608703220   -4.56161541060011   -4.60625140046311
C           0.50722335694852   -3.62322276565600   -3.84453299688224
O           0.04366929458458   -2.61512201467594   -4.34049400574557
C           0.27491549294342   -3.99895769281670   -2.43406027160333
N          -0.46472427451399   -3.18512319715856   -1.70863525941450
C          -0.42656654189574   -4.84917152785782    1.48945073697481
S          -1.43205950480592   -3.52987170802691    2.00998269109689
C          -0.02783987357428   -5.90009224184327    2.34692449015760
C           0.79033017518094   -6.94106595275180    1.98837967262897
C           1.00749608121728   -7.86208732121010    3.03318096129135
C           1.78800187254204   -9.03837338887870    3.03768255920236
C           1.85571252041654   -9.72077431985039    4.26101003043243
C           1.13848237055192   -9.20656160831371    5.37282186297137
N           0.40330633121044   -8.11468935282820    5.37329909755195
C           0.34949160456054   -7.46622591555547    4.23012758311846
S          -0.55716488161645   -6.00275510138241    4.02308207788385
S           1.29983232433739  -10.19300837946195    6.79865103391123
C           2.30131426020492  -11.30251992007007    5.90314031454030
C           2.50428562016520  -10.94286682640701    4.61216998928457
F           3.23076834539668  -11.67106384555040    3.75553032958807
F           2.78511751174688  -12.38234384876429    6.50539782678430
C           2.47128966761249   -9.42031837486884    1.81826700754398
C           1.80731376762243   -9.44933452644059    0.62621755348783
C           2.59816593258053   -9.65946445266125   -0.54354713867853
C           3.94766328291555   -9.79525157532151   -0.34242272848309
Si          4.30638824008501   -9.66962553527444    1.49471200014286
C           4.89406001565286   -9.89215710809964   -1.39245630692683
C           4.74176434916276  -10.33346031775884   -2.67463795179845
C           5.74376635855106   -9.93009097040080   -3.69346015048458
O           6.82987255430357   -9.43687283643620   -3.49837256564915
C           5.10056471577181  -10.21160312025176   -4.99796437961707
C           3.87031073794137  -10.85794145020249   -4.78140954930889
C           3.69600278308303  -11.07478893682411   -3.34509034728796
C           2.85068770281829  -11.99950070864769   -2.79159735009565
C           2.85668506436168  -12.34298536905853   -1.42459610175403
N           2.84553159784614  -12.67976546359007   -0.32781048770886
C           1.92286138281125  -12.75919930876154   -3.53318438769434
N           1.14218368383625  -13.38587421352146   -4.09438865700700
C           3.06383529966935  -11.18391764407829   -5.85817994729712
C           3.50469133291084  -10.86683282938563   -7.13811048449330
C           4.73591021668602  -10.24197212319341   -7.34599644813044
C           5.54507419627777   -9.90698898437284   -6.26749225668078
Br          5.31797756436104   -9.83295140463470   -9.09816056975873
Br          2.39595138193382  -11.29614884818027   -8.60911348214187
H          -3.45448378310950    1.38224585999994   -1.62391308414451
H          -4.01956491351742    1.06082150078038    0.80043481702715
H          -3.03654808796035   -1.00082847344660    1.91574865749407
H          -2.66742611776711   -1.68002715543043   -2.66181900806699
H          -0.65455115123758   -0.37361148209505   -2.02350034789406
H           2.46532299120652   -6.35223540610229   -4.68697030238125
H           1.53384468400517   -4.28248823608229   -5.63467197537963
H           1.21872946992381   -7.01030512715660    1.00547162221673
H           0.73639057482974   -9.33759126943890    0.54345931117298
H           2.14111139678186   -9.59886254601522   -1.51857775719161
H           5.02295173960581   -8.43239142488821    1.82463807566181
H           4.93592718773157  -10.85786677626832    2.04428623219851
H           5.87943687856401   -9.48794582744316   -1.17854096359819
H           2.10610026424773  -11.66310092594168   -5.73284693153940
H           6.49613635107106   -9.41993056791910   -6.41736988229305
