58
 SCF done        -85.544010424714          0.000791809475
C           3.21659449972194   -0.30101511777197    1.28111527113995
C           2.19754417071858   -0.26141429361338    2.17074377248598
C           1.24627854889428   -1.33884952587988    2.09132725352338
C           1.48745960087005   -2.28145571674456    1.12436699553673
Si          3.04839403353415   -1.80211801071533    0.20662797740766
C           0.67450062629151   -3.42715895587208    0.86650952676302
C          -0.44675542268659   -3.78943901258203    1.58275427592920
C          -1.12159193539725   -4.96506700990932    1.16109103562454
C          -0.57778037572117   -5.62273071856337    0.07784849148788
Si          0.93725458579495   -4.68215213845241   -0.48611774322472
C          -1.09869715302606   -6.81207390853195   -0.50204889271998
C          -2.18039049698138   -7.52110925529467   -0.02693164950435
C          -2.70009895263076   -8.68668211656801   -0.58364256792536
C          -2.03047774687723   -9.33750219635690   -1.72011797181617
C          -0.95913622143892   -8.82579104096765   -2.36283068268655
S          -0.21859469743561   -7.33440914020364   -1.93878170158707
C          -2.73752497426676  -10.55141152499158   -1.93445768508049
C          -3.77508631112983  -10.65756075356530   -1.01066932364520
C          -4.52254787317696  -11.84387197027673   -1.18427163620028
C          -4.04116365288820  -12.59270710138947   -2.21007779473250
S          -2.67043943294787  -11.89383468842856   -3.00801577183407
C          -3.78758771506302   -9.48681088585761   -0.17042572990168
C          -4.75645406280230   -9.28236468104730    0.83843492237327
C          -5.09999239307820   -8.10127797505471    1.42771802855447
C          -6.05389585042033   -7.92541310159925    2.46259664690361
C          -6.70705465428185   -8.93897234393205    3.13867623012081
C          -7.61312379272044   -8.53802937349673    4.15273554808516
C          -7.74433668532730   -7.18102176778939    4.37028251568509
Si         -6.62930307798359   -6.29248746437786    3.16929219474175
C          -8.60214546332193   -6.58069690537099    5.34156822058643
C          -9.31269058009348   -7.25831319197140    6.29989867144147
C         -10.11729032044374   -6.44933335558698    7.17657616093484
C         -10.07664188302550   -5.11370958046749    6.95889952686016
Si         -8.94259398849283   -4.74883660594800    5.53975854147331
H           3.97649908898775    0.46389331725087    1.26641847504753
H           2.06962380452038    0.51749281139616    2.90994735631145
H           0.40525493135855   -1.36367998848044    2.76802876146688
H           2.82188427808005   -1.50540171355868   -1.20986492213880
H           4.13271826817958   -2.77514465872727    0.36148759432826
H          -0.82156373381775   -3.23292294934194    2.42889117466004
H          -2.01023973486997   -5.28856754419934    1.68335341827763
H           0.80799960692252   -4.14284092485090   -1.84232589413733
H           2.16860298946358   -5.46610474048085   -0.35796645381863
H          -2.63796754806374   -7.14837686846907    0.87631532868556
H          -0.49337669426976   -9.32155286041936   -3.19997420215669
H          -5.36960511093954  -12.13259461679066   -0.58845132202301
H          -4.40821449925516  -13.53576673323044   -2.56558117434107
H          -5.30701736032724  -10.17105447846094    1.12025641265066
H          -4.65194148718537   -7.18861161856279    1.05965015165740
H          -6.55484620952595   -9.98917131664034    2.93657561240764
H          -8.16411441055067   -9.28427956726183    4.70693020462225
H          -5.54940766933754   -5.52852064455504    3.80471737389867
H          -7.33059017679429   -5.45220035945650    2.19421805082934
H          -9.28628798844946   -8.32995257628706    6.43103955738000
H         -10.70583311493708   -6.91702185524443    7.95393304333848
H         -10.64952901521555   -4.43010738220089    7.56465806934100
H          -7.75209287739699   -3.97441629428168    5.90364867745353
H          -9.60498568875050   -4.15098500798325    4.37653204944879
