98
 SCF done       -176.893533596618          0.000918600766
C          -1.59121724473384   -0.56979071586031   -2.95367086914056
C          -1.47441829401427    0.52861757653209   -3.76308012023319
C          -1.05149763486068    1.75351151986518   -3.24534690674585
C          -0.73160399822457    1.92233037555663   -1.90807959506081
C          -0.84925179343598    0.78817107756692   -1.04756670460274
C          -1.28113644045052   -0.45313853404261   -1.58687580200548
N          -1.39958333732019   -1.53897982068434   -0.79204635426035
C          -1.11270044042900   -1.42941903987640    0.47716505263823
C          -0.68066949617467   -0.18414004413085    1.02456196289106
N          -0.56129220645663    0.87367206335640    0.26557551008548
C          -0.34970870741974   -0.03565089006988    2.47072357573516
C          -1.25418586301952   -2.64757814508482    1.32704457941448
C          -0.29516823322520    3.20394830327352   -1.41664545337287
C           0.10256199458152    3.54655937614192   -0.14379624766100
C           0.46586043137142    4.89169863923341   -0.04059474262507
C           0.34169158358911    5.58543565814925   -1.25519461578804
S          -0.21923555380055    4.58490914019599   -2.51552742780139
C           0.73911442627904    6.93072399029206   -1.04696043267054
C           1.11589371595008    7.08569411485978    0.29710922737136
C           0.95133754467654    5.80584177419763    0.97445217427467
C           1.19876049387452    5.52698714565275    2.28804376404513
C           1.67444367426359    6.50433160494831    3.18582477813241
N           2.06098633547925    7.29820827999115    3.91785305225814
C           0.99284818251659    4.24423911725614    2.83513646602902
N           0.82644377345103    3.20657193814386    3.29519114550698
C           1.53218969431671    8.38060784903810    0.60034625715134
C           1.47528363334577    9.21818510519756   -0.50027007508113
S           0.89183013959127    8.37841316270228   -1.93662928531381
C           1.82865829291894   10.59570974110382   -0.57195118156678
C           1.70260228779245   11.33261410276423   -1.72461455410375
C           2.04328819034227   12.67605939504253   -1.85749579616267
C           2.59233436864029   13.43226770828029   -0.72910881755660
C           2.79585194759089   12.91431172459026    0.50129966848743
S           2.44699205795522   11.28797342920392    0.92531043951897
C           2.82651344782902   14.73925339764233   -1.23726271201961
C           2.45295333550007   14.80792903030268   -2.58184347155235
C           2.67286193505825   16.09916536837524   -3.11377457392879
C           3.19178743068873   16.94673391546391   -2.18714867299625
S           3.43695216843592   16.22694077604030   -0.63387875908035
C           1.95407607511442   13.51581835161041   -2.98748315910094
C           1.44847279120390   13.10148363948969   -4.23738850004070
C           1.34470638916993   13.85006110564001   -5.36899653845422
C           0.80225470395950   13.36571941309267   -6.58202263826079
C           0.27152363223262   12.11438615672433   -6.86957273449973
C          -0.18133010050155   12.02130620048245   -8.18026549857460
C          -0.00050504230419   13.20443755524130   -8.91687098302839
S           0.73259919274581   14.43325678799942   -7.98069661842026
C          -0.50371133707484   13.00027322048688  -10.22559154011339
C          -1.00405378382906   11.68918252432729  -10.31441612893541
C          -0.81987090742022   11.03037491832826   -9.04015176483202
C          -1.17240829328325    9.75383428641142   -8.70372303417260
C          -1.79955775234058    8.88247461020867   -9.61670001247260
N          -2.31288378435925    8.16256010191690  -10.34807169627828
C          -0.93397685919807    9.22558141202973   -7.41923773747310
N          -0.74162655576948    8.78767335319302   -6.37594639040828
C          -1.53224105258914   11.39155294699631  -11.57389494419272
C          -1.44514770830231   12.44939450663516  -12.44829631388627
S          -0.68342284304379   13.85552794329582  -11.68934349537019
C          -1.88254975249573   12.52596671905423  -13.81753102765437
C          -1.66709863996022   13.67325362154289  -14.56352663326139
C          -2.07834273827076   13.78871278886711  -15.89190087797895
C          -2.72260386644878   12.75468948362584  -16.51723764927947
C          -2.96821574847741   11.56689878461101  -15.80547069574881
C          -2.55265127208227   11.43590825553862  -14.45326512477987
N          -2.80077437800515   10.28782184478080  -13.79417546612803
C          -3.41870169750790    9.31095127428271  -14.40519640871535
C          -3.83489582352758    9.44804728101493  -15.76316130260390
N          -3.60675289439499   10.55043453323434  -16.42515445607544
C          -4.54336418962482    8.34557419381334  -16.47683240034640
C          -3.66826060409315    8.06162557827665  -13.63018703959708
H          -1.91431562310142   -1.52856871461793   -3.32625828264218
H          -1.70846840210277    0.45777016734410   -4.81474824829445
H          -0.96953911947142    2.59917795573520   -3.91383922187779
H           0.45430911263716   -0.71700478267469    2.74530614208449
H          -1.21704257586316   -0.27902972495477    3.08282743776664
H          -0.03938748315015    0.98468961879441    2.67924747246059
H          -1.58855950814658   -3.47796903108579    0.71196520546379
H          -1.97721392076443   -2.47247535654345    2.12228771061047
H          -0.30102787195358   -2.90007198789445    1.78906683777058
H           0.11662736476955    2.82626315916655    0.65242596271191
H           1.86243566589056    8.71047143221522    1.56898436413635
H           1.30844431244746   10.81015537463572   -2.58640824833269
H           3.19779094482266   13.49292677530080    1.31793508805035
H           2.46607371504056   16.40730805656313   -4.12187420646298
H           3.45429885932648   17.97841436051735   -2.31781483406611
H           1.10712806896588   12.07672851111161   -4.28096776209772
H           1.68303643088267   14.87427469759183   -5.37491414819055
H           0.21804214954201   11.31706340564654   -6.15212213912901
H          -1.96946268358987   10.45575742733625  -11.86736035785886
H          -1.16123408876017   14.50972240601573  -14.10153496049532
H          -1.88123556657817   14.70811291078973  -16.42288493733422
H          -3.05180216276329   12.81625087839239  -17.54206884368281
H          -5.46518035116693    8.08852390482199  -15.95727226101933
H          -3.91809788552225    7.45464918055487  -16.51268291272740
H          -4.77561599328641    8.66372597561833  -17.48903246307457
H          -3.25726600714550    8.15604043169210  -12.62867642104043
H          -3.20717962198845    7.20994677747096  -14.12806031881911
H          -4.73806476134165    7.86904358698318  -13.56101132601601
