96
 SCF done       -172.612665998884          0.000218293011
C           5.85657106936949   -0.12666156449115   -4.40118054603541
C           6.38492121309055    1.07624531524299   -4.78806208601094
C           5.91183455112246    2.27109680760710   -4.24467308557775
C           4.89802904296560    2.30630494416019   -3.30073700148710
C           4.33345515605549    1.06066080854088   -2.88549548776653
C           4.82534154146728   -0.14904165184137   -3.44512259405823
N           4.30829462324105   -1.33756857382321   -3.06458152357424
C           3.35034227544697   -1.35723962995384   -2.17690194374116
C           2.85146228076304   -0.14543063420063   -1.61425165317455
N           3.34429549917034    1.01116083352346   -1.97317130676841
C           1.75631431484161   -0.14065478990768   -0.60114823324865
C           2.80228437047201   -2.68629832195954   -1.77682328068178
C           4.43919516163167    3.55942797213534   -2.76379004305426
C           3.44504555876661    3.78649311206837   -1.84171607069929
C           3.27404277123542    5.14250146295038   -1.55294576156757
C           4.16010168139845    5.97427058566611   -2.27263711573012
S           5.19022908172929    5.07494346867169   -3.29460725245824
C           3.91183347731492    7.31543607980638   -1.91576585985401
C           2.86609159690537    7.33338002998116   -0.96860643513847
C           2.43576543709825    5.96060759053794   -0.71467632293455
C           1.44707443510046    5.55084384115801    0.13878688278844
C           0.67863414309164    6.44122884309177    0.91509452700286
N           0.03374350912786    7.13798935713213    1.56029236140033
C           1.11208929003341    4.19446936645472    0.31479909759706
N           0.81480899445156    3.09827897287615    0.48395143129842
C           2.52895915893863    8.60051682312680   -0.53715970913361
C           3.30328228098539    9.59883512678940   -1.13838515526397
S           4.47358422716748    8.89714959716996   -2.26530614375748
C           3.26753759494074   10.98804663427393   -0.97154230243450
C           2.41800781769820   11.69750899509201   -0.14603755935674
C           2.36901087498704   13.10030011390799    0.02786200321121
C           1.41617848022921   13.53416809246172    0.91139461209005
C           0.66277037644756   12.49483669836891    1.48175341599617
S           1.20216769866858   10.95282607568728    0.86462780870074
C          -0.38230241041899   12.47065586474126    2.39608995888287
C          -1.07231715570435   13.48299619685296    3.08614993609642
C          -2.06389950211247   13.00892708177685    3.90208579351715
C          -2.20540442538058   11.60145412264368    3.89611799170140
S          -1.02464497122320   10.90130329713207    2.81610978384867
C          -3.11014923346561   10.83192139413296    4.59692823320551
C          -3.21428359896935    9.43756216758092    4.55116902183595
C          -4.14342659882130    8.65579420081061    5.25204712405613
C          -3.99576412361456    7.30534531207292    4.99397197534444
C          -2.94447492984237    7.02991342386380    4.08840703774565
S          -2.14733923856644    8.43863457892141    3.56032881292143
C          -2.87280151272124    5.63634692914942    3.89045728280512
C          -3.87508129561156    5.01821889238200    4.66498707830675
C          -4.61076923135022    6.03791313668575    5.37895840484738
C          -5.66301517409587    5.85566083201704    6.23241120130618
C          -6.17778916505101    4.57765123803498    6.52726684355281
N          -6.60987692228261    3.54446163355501    6.77780445887090
C          -6.30426454590099    6.93441559352637    6.87249338064997
N          -6.82963528007703    7.81016311990659    7.39573730640168
C          -3.87921056719440    3.62792972848812    4.53184415708118
C          -2.90158386473175    3.17600876670290    3.67314948464714
S          -1.94655793132745    4.50878050353615    3.00741189403790
C          -2.59664211940840    1.82243531493010    3.29014094553515
C          -1.55747761532037    1.55639893276213    2.41285582763953
C          -1.22765497376187    0.25907037653178    2.01941786209806
C          -1.93026497849151   -0.81684541683199    2.49287845041341
C          -2.99653434668563   -0.60344162645699    3.38512421435238
C          -3.34307830104591    0.71254946923307    3.79385230124397
N          -4.36948171133495    0.88948569560325    4.64751508854225
C          -5.03151199758703   -0.14809031930506    5.08899992993682
C          -4.67808974189721   -1.46729160552423    4.67689195468878
N          -3.68763815546304   -1.66737048390642    3.84915682770210
C          -5.42102816926550   -2.66370009330277    5.17086908966973
C          -6.15929653583379    0.10452135000285    6.03145128905532
H           6.20335773884116   -1.06464581101649   -4.80408833403363
H           7.17707539643885    1.11203794257479   -5.52105676714254
H           6.35236295004952    3.20230100013526   -4.57283791009298
H           2.05777343380004   -0.70586491972541    0.28026515283025
H           0.86244827095405   -0.60871547278060   -1.01226823549501
H           1.52712768273055    0.88204550180281   -0.31204854417146
H           3.32353443921970   -3.46851958875614   -2.32087405139475
H           1.73745081416463   -2.73946862791577   -1.99889582458351
H           2.93092126874153   -2.84255691192981   -0.70676372723381
H           2.88302018564195    2.97866727037269   -1.41214909311632
H           1.75713968582572    8.79148514217102    0.18177567066093
H           3.97640736887426   11.56544629043422   -1.55048662551609
H           3.03802195879008   13.75322555331138   -0.50505564329722
H           1.24461604424829   14.56703963250645    1.15776084826970
H          -0.82952275407297   14.52424069119535    2.96848323851880
H          -2.69844540451230   13.63298335340587    4.50681670027927
H          -3.81030050528884   11.34738705724284    5.24120780938724
H          -4.87811200567638    9.08606504225077    5.90880725602323
H          -4.55009874942319    2.94916163149681    5.02428436385120
H          -0.97607703551244    2.37548446796984    2.01366491723439
H          -0.40626037988649    0.12115380351148    1.33401396044305
H          -1.69767475763774   -1.83047229983743    2.20714183091941
H          -6.47111720676717   -2.60007480615741    4.88927880456230
H          -5.36739997023743   -2.72138386478436    6.25700336916745
H          -4.98586910732917   -3.56065500164139    4.73968564316026
H          -6.26120392663330    1.17111709056323    6.21287255542027
H          -5.98092455248576   -0.40377986610827    6.97803537510254
H          -7.09054014356046   -0.27898629138531    5.61687864929294
