92
 SCF done       -176.593747040651          0.000406171137
C           5.23683067591346    3.82198317730882    4.29464521048167
C           3.98501014690168    3.32395889435329    3.92330396776865
C           4.21811532837762    2.02288105664556    3.39475995208036
C           5.62942198650635    1.85958880733963    3.45557402743373
N           6.21118232533225    2.94421630786634    4.01493189515877
O           6.31229649214682    0.83536177608986    3.00244376628543
C           7.71933445212945    0.89863500969878    3.16375393643393
C           2.96132132134142    1.54030439793163    2.96601348875562
N           1.99985621207641    2.47859579620995    3.18918672081935
C           2.58334759931641    3.53258821942229    3.76377200160344
O           1.92690232992110    4.61366021178528    4.12499915640059
C           0.53263203451131    4.60862235245433    3.85979684876536
C           2.68330082947894    0.27191988065362    2.39796292006515
C           3.38893405638434   -0.93376613515980    2.62058070594222
C           2.74313216448767   -1.91673979706740    1.83220939768919
C           1.67947297172396   -1.22841659772851    1.18082759744927
N           1.65098338658256    0.05433325112539    1.53294709441657
O           0.82372203024003   -1.78408972689313    0.34267408926689
C          -0.18322719304005   -0.92510434872088   -0.16792248530256
C           3.36995637970549   -3.14501219487647    2.12767639338801
N           4.35122634108373   -2.95672854481717    3.06032585007182
C           4.36651614729138   -1.65873785269910    3.37154475070830
O           5.16476587547148   -1.14907256064583    4.28046771875381
C           6.05961463057182   -2.05583553681152    4.90288212358579
C           3.07708121593398   -4.42341325760027    1.61699615151662
C           3.63455439971276   -5.63011660823766    2.02271985065564
C           3.10183275417957   -6.70369385433630    1.32388164891858
C           2.14161511069080   -6.30981596297184    0.36254734356957
S           1.88262461924199   -4.62268925997001    0.34604134798148
C           1.66920384222894   -7.46384748934058   -0.30089842253878
C           2.31147703513494   -8.59645899464297    0.25223184321639
C           3.23145425316341   -8.15147810088011    1.28663997736921
C           4.04179264307192   -8.92857407443691    2.06138422433887
C           4.07610783996961  -10.33431425341519    1.94441086527814
N           4.11294834291772  -11.47742320680486    1.86272502319894
C           4.90350210321579   -8.38314172250534    3.03651804326703
N           5.60827007430443   -7.95575599549876    3.83361664477330
C           1.90245550611085   -9.78574635099629   -0.33328557274358
C           0.96745952880979   -9.57034403841297   -1.33880031860677
S           0.58454878860768   -7.87085435164128   -1.55466335421488
C           0.35851858107036  -10.54896262007141   -2.14635853029754
C          -0.51297643168808  -10.36879198827929   -3.24050055314981
C          -0.83552129007630  -11.66252867075723   -3.71687237690435
C          -0.09529393193111  -12.55160639598140   -2.87632117930620
N           0.59108253743108  -11.88122490852235   -1.94831152691130
O          -0.04769773900038  -13.85768060695083   -2.99884602973220
C           0.75735748096628  -14.54315710670394   -2.05420094279703
C          -1.62959320110152  -11.46798986643772   -4.87132292968354
N          -1.78137705003383  -10.13383352995659   -5.11247306692802
C          -1.13896336909521   -9.47199742917918   -4.15342231559848
O          -1.08640488498817   -8.15512742361285   -4.07193073852955
C          -1.75105736010867   -7.44760857967212   -5.10643487213268
C          -2.20659747619336  -12.47283867418858   -5.68752142863451
C          -2.59338845151486  -13.77164326535991   -5.28769572116945
C          -3.08620510854187  -14.41723284126276   -6.45675975404898
C          -2.96306395927702  -13.43977112758234   -7.48780164977306
N          -2.45507743870999  -12.29947248906500   -7.01517380309256
O          -3.30103202191835  -13.61295332910694   -8.74710805118484
C          -3.10324701186582  -12.49630826387872   -9.60048550628429
C          -3.52185530662168  -15.68058824456239   -6.04791694742664
N          -3.35659007908189  -15.84759962044467   -4.72771746207139
C          -2.81701853140605  -14.70767172918325   -4.24081811479742
O          -2.58677249429090  -14.51331901183804   -2.96412846609202
C          -2.89895543568702  -15.59181116871420   -2.09859459380800
H           5.48369029289968    4.76836218223385    4.74032200369051
H           7.97874204960719    0.95091046549292    4.22261631460073
H           8.11901527075854    1.78428036537638    2.66598584713361
H           8.11895579138517   -0.00791706679563    2.71400139710970
H           0.15946852421255    5.57856708801999    4.18134363627818
H           0.04544122087863    3.80457330540892    4.41438129455786
H           0.34952067807817    4.45476122830278    2.79509088840000
H          -0.81592548407141   -1.54334435624370   -0.80106116767893
H           0.26743343898925   -0.11522085605080   -0.74428684403500
H          -0.75907093800332   -0.48850572456178    0.64988597509592
H           6.61355767549914   -1.47934611199858    5.64058347333039
H           6.73650626236283   -2.48903312562414    4.16412176396464
H           5.50742647996779   -2.86614781316127    5.38272753897692
H           4.38063174907011   -5.67058545274039    2.79461705086525
H           2.23853167396330  -10.77527585897915   -0.08437056229935
H           0.70864639214131  -15.59692239005914   -2.31993161113450
H           0.37795784044882  -14.38202606587214   -1.04343199054691
H           1.78663170777478  -14.18200710149965   -2.09862541564680
H          -1.57103394922147   -6.39195613482430   -4.91514829902550
H          -2.82004685165981   -7.66712345317784   -5.08799149121612
H          -1.35487997028603   -7.73994060117038   -6.08037367335631
H          -3.45841175950202  -12.79927087338495  -10.58309805255468
H          -2.04503452089752  -12.23139119532477   -9.63720604776813
H          -3.66307729441628  -11.63449933282411   -9.23341744853495
H          -3.95131157659822  -16.47140828297543   -6.63559755791496
H          -2.29705795571859  -16.46705887388341   -2.34938918465046
H          -3.95332635227961  -15.85950951200261   -2.19062025776010
H          -2.67646700358667  -15.24801388189226   -1.09055344337237
