80
 SCF done       -170.333171440492          0.000189332867
C          -4.73425651768353   -5.43703810336872    5.33703783734951
N          -3.60001215403574   -5.69984873128112    4.74876947726827
N          -3.51973927073515   -5.98205256375211    3.47407781480740
C          -4.57432366487776   -6.02420269351270    2.67812533316039
C          -5.86791976137035   -5.75507909667960    3.21010427824610
C          -5.94297302329458   -5.44777787568597    4.60803962266476
N          -7.19499476027731   -5.21456138255178    5.00116462092202
S          -8.16811062288675   -5.36926410549969    3.73336297419142
N          -7.06164244256458   -5.73762210072574    2.62526084510216
C          -4.34756882430390   -6.34289721758583    1.30579439288837
C          -5.26465061738843   -6.43941129545891    0.27920333774278
C          -4.64627701186365   -6.76979950927450   -0.92637862198423
C          -3.25120339114719   -6.92290612436916   -0.79642529893788
S          -2.70197544767033   -6.66107311390059    0.79566680990442
C          -2.72015508876338   -7.25384104190016   -2.07096602076457
C          -3.77080870038688   -7.30726135784358   -2.99989910325608
C          -5.01784352333642   -7.00655418174412   -2.30995061594114
C          -6.26903542544771   -6.95904301366434   -2.85132160589428
C          -6.50826596170467   -7.20902466216823   -4.21910258886332
N          -6.71340391984551   -7.41146933920644   -5.32897473794463
C          -7.41288291463074   -6.65757686934727   -2.08196545304529
N          -8.35093158272356   -6.41378960800617   -1.46919094999679
C          -3.34085184941824   -7.62340063279778   -4.28976094423984
C          -1.97359242443525   -7.81216042730637   -4.34644073537849
S          -1.20534241337250   -7.59597080209362   -2.78268395436369
C          -1.19105711207206   -8.13784381500470   -5.48820023890229
C           0.15997490774619   -8.34828965574472   -5.54072835121709
C           0.62679209751952   -8.64547820700752   -6.84014165137889
C          -0.41209921336906   -8.65512533099681   -7.78611952999091
S          -1.95198615011612   -8.30381374531251   -7.06115262724881
C          -0.22835705213139   -8.91062200958902   -9.14091743230397
O          -1.37914124466746   -8.86634160145943   -9.85785489658740
C          -1.44245025576236   -9.13914813496750  -11.23550625346809
C           1.09307041876725   -9.16506669509993   -9.55555793080751
C           2.15226144541727   -9.16446178875564   -8.58645877830266
C           1.95513356730612   -8.91368572044867   -7.23965138633138
O           2.85492014287910   -8.88188455085738   -6.22540974794352
C           4.22090726259922   -9.13819858478288   -6.44938560986619
S           3.69162444298665   -9.50891785031509   -9.35919407385065
C           2.93748472689782   -9.63396308292601  -10.92466736543265
C           1.58771308634245   -9.43256488562732  -10.85788110804663
C           3.71466390983441   -9.90696955746322  -12.08466764400521
C           3.26991190728535   -9.99196923972028  -13.39170202137036
C           4.31124554176746  -10.26265800390050  -14.27847208338400
C           5.55688108882925  -10.38706933164062  -13.64309455757220
S           5.44389847589481  -10.16893765783858  -11.95258863915264
C           6.54517062262654  -10.65358410193399  -14.62632977301384
C           5.91419692113572  -10.69415904674050  -15.88709289668837
C           4.49536439492757  -10.45220884797761  -15.71070471687133
C           3.52945949844604  -10.40622985678458  -16.67455779073945
C           3.81447221941658  -10.60141931863651  -18.04207045165532
N           4.03226617593351  -10.75797897004032  -19.15695360483760
C           2.17801619898106  -10.15797267853199  -16.35875556691102
N           1.08014428963106   -9.95536501101236  -16.09458124705107
C           6.80890293013100  -10.94413651760407  -16.92764603223490
C           8.09791922804691  -11.09169476565774  -16.45910271637385
S           8.22561455866741  -10.92461068987465  -14.71927372395719
C           9.29161391226976  -11.34969734072796  -17.19733101863659
N          10.41696190400637  -11.46069866771299  -16.51287796459712
N          11.57396256837311  -11.69326349970323  -17.07707257175989
C          11.70773759577055  -11.83214709729940  -18.36718689746959
C          10.58828914164178  -11.73621331270893  -19.22174785959900
C           9.31442308972122  -11.48431968528747  -18.61510106745285
N           8.33462229410168  -11.41303688375446  -19.51084036111153
S           8.96273277880548  -11.64184252647317  -20.97422128176384
N          10.49764741177819  -11.84125815718828  -20.54733712915391
H          -4.70300218083685   -5.21476417265744    6.39207500405911
H          -6.31645569484342   -6.27330831840648    0.42731602466989
H          -3.97305516983063   -7.71591350384920   -5.15437045638819
H           0.80723560384270   -8.29362721058313   -4.68444637749761
H          -2.50104075089994   -9.07135557315336  -11.48528411337135
H          -1.08673148942140  -10.14729003613627  -11.46585765065406
H          -0.89295074080331   -8.39622061231820  -11.82076494912946
H           4.68862185279568   -9.05790924527962   -5.46880557077631
H           4.66851291724227   -8.40113335607805   -7.12100027379903
H           4.38675448597629  -10.14384181794898   -6.84413947267134
H           0.98333454450333   -9.47646001392609  -11.74115277577452
H           2.24319868474288   -9.85899737296337  -13.67702387748891
H           6.56160126261678  -11.01772017891207  -17.97134591334529
H          12.70112826028394  -12.02057631247325  -18.74286971319239
