76
 SCF done       -161.122593363235          0.000398812620
C          -2.40159709222247   -4.34177602102100    6.06972136758634
N          -1.46541677055850   -4.44706932184953    5.16730165385097
N          -1.70935935928557   -4.85080058630024    3.94750159197409
C          -2.91788945085655   -5.18450126395176    3.52756222961088
C          -4.02043223071711   -5.10930484607741    4.42614821022922
C          -3.74019868445323   -4.66550375841728    5.75992826026732
N          -4.83753957969232   -4.63151861009587    6.51546605378969
S          -6.08694022278286   -5.11080985089647    5.62772630365554
N          -5.30826609401894   -5.38545642925867    4.24638398094200
C          -3.04545178922177   -5.60795829452640    2.17133331250518
C          -4.17863625383169   -6.00668428081983    1.49358938827335
C          -3.88999423895622   -6.34646351492746    0.17186267843118
C          -2.51966717169555   -6.19874900667593   -0.14009119190270
S          -1.59697917946896   -5.64656754846767    1.18372957139738
C          -2.33002369526001   -6.56487962190495   -1.49462558093266
C          -3.57106331780885   -6.94057028698606   -2.03666617026112
C          -4.59124721376218   -6.81881674801638   -1.00312264089894
C          -5.92164629796542   -7.10242405991184   -1.13182440967945
C          -6.46882395278790   -7.56893558157086   -2.34420029357252
N          -6.91003962515949   -7.95414951786196   -3.33120805195487
C          -6.83352216856198   -6.95410585287626   -0.06634222959495
N          -7.58665190435707   -6.83895100248619    0.79078141995154
C          -3.49504305794929   -7.32045377987737   -3.37159662375637
C          -2.20030888056953   -7.23963636992959   -3.86502743340530
S          -1.06661023703430   -6.68563905272121   -2.64135705375252
C          -1.75303227652945   -7.55780872031126   -5.17964539607760
C          -2.62444690019637   -7.89093540821346   -6.19178119585386
C          -2.25263666977791   -8.22695517545021   -7.49024200874666
C          -0.85033959475334   -8.12637304128859   -7.91927512296095
C           0.17405138082656   -7.82318673570908   -7.09314283286669
S          -0.01148435439641   -7.50567974340119   -5.41708033230925
C          -0.86128518651205   -8.39244910433144   -9.31616292616354
C          -2.16832306372836   -8.64652976223551   -9.73413504426826
C          -2.24136930507856   -8.92223113477995  -11.11738968284131
C          -1.01564440917711   -8.86785431761237  -11.70053590610759
S           0.27086112652020   -8.48806571751714  -10.60432616431801
C          -3.05117114639042   -8.57711405879311   -8.59943498874573
C          -4.44062472119757   -8.83441082600091   -8.68092633420513
C          -5.26370655432330   -9.16090578543463   -7.64776123660992
C          -6.66015412251172   -9.36202455457834   -7.75430804632283
C          -7.49274289365043   -9.22907018710756   -8.85908921340143
C          -8.82013264592730   -9.49872863779179   -8.54757444133512
C          -9.01278731748388   -9.83861205653203   -7.19446401721788
S          -7.55345355270512   -9.82514230103119   -6.31165508032321
C         -10.38911591865386  -10.08868939466880   -6.98294758536049
C         -11.07260099210955   -9.90535801588229   -8.20525347082357
C         -10.11027012833654   -9.53170903800841   -9.22493602013095
C         -10.34738435190716   -9.26843621197533  -10.54253236547401
C         -11.63687914914258   -9.32366598588867  -11.11264973306197
N         -12.67467290987506   -9.36288262539077  -11.59796813138067
C          -9.30815624650925   -8.92315142282402  -11.43114956395187
N          -8.46235355632768   -8.64611972229426  -12.15497910259344
C         -12.44181875953186  -10.13224824646617   -8.09209573914894
C         -12.79575462286108  -10.48495298676712   -6.80271607519066
S         -11.42727302554432  -10.53853397239455   -5.70795692201377
C         -14.10782334418102  -10.78912821458314   -6.32983158046034
N         -15.12275673193180  -10.72976076837850   -7.17781134754731
N         -16.35250292578715  -10.99307113517949   -6.82097118623116
C         -16.68319804191043  -11.33494568169144   -5.60545608405901
C         -15.70128071967865  -11.43932552017363   -4.59723369880546
C         -14.35055581701269  -11.15370742828260   -4.97498494820848
N         -13.50042000849821  -11.27977685246129   -3.96214929633425
S         -14.33296477642107  -11.71799416939191   -2.65297250069350
N         -15.79809139262388  -11.76780869914963   -3.30879687676533
H          -2.10647975776383   -4.00012043954795    7.04933000437797
H          -5.14783294720215   -6.03915767745597    1.95796201822490
H          -4.33755511597587   -7.64686881394941   -3.95154781749712
H          -3.67639304349124   -7.84723387274888   -5.96024446824665
H           1.19667350083791   -7.76715519451772   -7.43122269791457
H          -3.14410188767962   -9.14577458844176  -11.65601794431291
H          -0.77125826212403   -9.03095989120098  -12.73193491355427
H          -4.85601169141044   -8.79992160899180   -9.67933281905593
H          -4.85198393278177   -9.32124878750007   -6.66244829720708
H          -7.13853956378148   -8.94722679633209   -9.83304355536242
H         -13.17159799324224  -10.05635103522376   -8.87713095042811
H         -17.72670520966267  -11.53033272605827   -5.41469070267085
