110
 SCF done       -227.079185571566          0.000580472896
C          -5.44576012962965   -5.31181829096037  -14.96274583262131
N          -5.68147222671773   -6.57882289135259  -14.75901697248290
N          -5.40607744980052   -7.18037216752032  -13.62896872637817
C          -4.86559373833370   -6.55108565547464  -12.60105951630822
C          -4.56392330019652   -5.16505306044941  -12.70961461702774
C          -4.86926425737493   -4.51692035748459  -13.94957761498246
N          -4.54304760134742   -3.22420643584991  -13.92962727525652
S          -3.91802059074863   -2.87659059266970  -12.49191350702687
N          -4.02673097585304   -4.33499287159879  -11.82174808311091
C          -4.60399634542505   -7.29208323840661  -11.40141569796738
C          -4.86011427546606   -8.61905761763651  -11.19876424895772
C          -4.50336154876129   -9.06693523758243   -9.90720756906382
C          -4.67263226736943  -10.35421348885410   -9.35172598595640
C          -5.17555246918017  -11.47441088013253  -10.11848633371164
C          -5.99716707232269  -12.48129182569978   -9.69555307650417
C          -6.23532126972232  -13.44753971775171  -10.69565819113089
C          -5.59520562488432  -13.20695692334809  -11.87746303003544
S          -4.68138453362556  -11.74259100582910  -11.76872326712238
C          -5.61456476828052  -14.00778445861612  -13.12696871412888
Cl         -7.24968413776437  -14.81243254133815  -10.42951108253392
C          -4.30416585826113  -10.50522939102325   -8.01947609506090
C          -3.75552294346450   -9.45766154746318   -7.23788386633544
C          -3.59871320317224   -8.17070851472680   -7.78923518329109
C          -3.96965812852758   -8.01309258358439   -9.11986502957548
S          -3.90492581600040   -6.51594436845291  -10.00666053211440
C          -3.09811769919817   -7.07166267605792   -6.98825254912567
C          -3.42814687472970   -6.75755979740553   -5.70103007707226
C          -2.75117079491483   -5.61182485841117   -5.23028251085603
C          -1.90191362862799   -5.04656169477390   -6.13623501213585
S          -1.93724695591388   -5.93802326895253   -7.62068201825855
C          -1.03905704554708   -3.84831644793765   -5.98105512557732
Cl         -2.99080584112486   -4.99384351733268   -3.63953350950137
C          -3.37858209634449   -9.90179880383993   -5.94843627154386
C          -3.64892222572329  -11.22129214019030   -5.72200544737742
S          -4.38304189179643  -11.99287153640017   -7.11262461855897
C          -3.42182600253279  -11.96316875743373   -4.53020179906333
C          -3.80493375574965  -13.26049799335020   -4.25909160107251
C          -3.43998318953887  -13.65468477832572   -2.96959393882399
C          -2.76330211078562  -12.64912616552693   -2.26294322764292
S          -2.58625411360940  -11.21723656749387   -3.17541428641177
C          -2.44481184655502  -13.13994059532054   -0.96876504087471
C          -2.93516967826523  -14.44944215969899   -0.85389055345348
C          -3.56731757944976  -14.82193321783702   -2.11028260805147
C          -4.14869695068717  -16.01556854252156   -2.41997119873503
C          -4.20969256442551  -17.08327208702600   -1.49941138149711
N          -4.26269407536860  -17.95465246714873   -0.75629319289178
C          -4.72349097567680  -16.26644807936927   -3.68413335099822
N          -5.19332023908916  -16.47496958150888   -4.70876253608966
C          -2.68612497354171  -15.01399229021329    0.39941250877871
C          -1.99949796475249  -14.15009746145003    1.22729288135189
S          -1.65845578799804  -12.61088013129540    0.45137370784288
C          -1.57367463848461  -14.38143129971118    2.56427480764905
C          -0.76069873589273  -13.59432301529671    3.32841719582481
C          -0.52336825438253  -14.10897638112357    4.62498520648656
C           0.24609062163242  -13.53643560116694    5.65734259594052
C           1.04315295647912  -12.34342587209765    5.46127703430560
C           1.28095610468142  -11.32976640570179    6.34455994183619
C           2.18062328748333  -10.36521545688545    5.84120147615620
C           2.65145465721517  -10.62870432261130    4.58784936427839
S           1.95948945256499  -12.10004577157942    3.99578849753460
C           3.61456256536468   -9.84971950278982    3.76971554560101
Cl          2.63887668241135   -8.97635987912568    6.74839332873676
C           0.23915805541306  -14.20144545172979    6.88178493349765
C          -0.47666592613751  -15.40741795490742    7.10229375553101
C          -1.22984201712333  -15.99264355973020    6.06204846021588
C          -1.22076932277988  -15.32416530135919    4.84366823701877
S          -2.09864447817626  -15.81611719465895    3.41990099789374
C          -1.99237009011525  -17.21091940277155    6.24117931864056
C          -2.16645354645068  -18.23096470604642    5.34937578728721
C          -3.02399498062183  -19.24136263878365    5.83486853515211
C          -3.52491935613144  -19.00568835184282    7.08245033556518
S          -2.91815924900930  -17.50336207905047    7.68973454920016
C          -4.45451460960284  -19.83932244810438    7.88552725646933
Cl         -3.39695175821303  -20.64871803713979    4.91647749071399
C          -0.26320126462232  -15.91014691731356    8.40619062036281
C           0.56369951106983  -15.12438000486771    9.15572324820075
S           1.13140794722186  -13.71858971097283    8.29831844256338
C           0.98528353017507  -15.32805063785367   10.50969867262169
N           1.79586547025182  -14.43132454637643   11.03679701156925
N           2.24694671975173  -14.50775585718849   12.26301151720899
C           1.92477443260060  -15.48261564127804   13.06644195081219
C           1.06139437282368  -16.51313774411224   12.63599465760651
C           0.56399047511242  -16.44160240251474   11.29321481327857
N          -0.23590342974750  -17.46319386223916   10.99931001155235
S          -0.34610968295754  -18.41425496319180   12.29297135007539
N           0.60773384576568  -17.58646302033385   13.28267399494985
H          -5.71000769201056   -4.90994055988115  -15.92843220702535
H          -5.30592969981961   -9.22266864375771  -11.96628580639987
H          -6.45352810995968  -12.52365410656355   -8.72424388177028
H          -4.61449353576013  -14.36708060257529  -13.36842075369940
H          -5.96406893785159  -13.40384897549921  -13.96349419246203
H          -6.27604733101337  -14.86159368483889  -13.00402817470617
H          -4.15822294214826   -7.28930210411275   -5.11931606644711
H          -1.33940872823614   -3.06799735058651   -6.67977955053200
H           0.00211995078581   -4.09617111247507   -6.18309998506292
H          -1.12218693115907   -3.46475826724909   -4.96722044650184
H          -2.90324527456702   -9.27402024939692   -5.21681198536178
H          -4.32908027926530  -13.87034981203825   -4.97277253553512
H          -2.97884901238136  -16.00156743329392    0.70758018080901
H          -0.35717441113704  -12.66597700375336    2.96780031306456
H           0.81375064497071  -11.24628677126982    7.30764440625900
H           3.83814949290820   -8.90890428020492    4.26624741942289
H           3.20373154282880   -9.64471852021198    2.78221875640062
H           4.54262493382186  -10.40628790431792    3.63790980787377
H          -1.67758822557243  -18.28989996623103    4.39490939777681
H          -5.41318414129446  -19.33526216422605    8.00852263723832
H          -4.04425831969591  -20.02594354940420    8.87690990038268
H          -4.62032645475858  -20.78887646246867    7.38294141302680
H          -0.68360590971619  -16.82124726853704    8.78867035978524
H           2.34347741766471  -15.46382598391536   14.06046285740480
