86
 SCF done       -182.757494096413          0.000523119248
C           3.79324357866396   -1.20925198539879   -0.56872256461729
F           4.49262692064539   -0.88364355526986   -1.65822324841848
C           3.83663284218233   -0.39269699785045    0.55656770393081
F           4.57512573987109    0.71775187147781    0.56221855875539
C           3.09948415175403   -0.75968418358542    1.67845848539096
F           3.13618554578223   -0.00018426599638    2.77505866013222
C           2.33466219781118   -1.91722283675962    1.66751947664609
F           1.67864407880819   -2.22843536372772    2.79066169913286
C           2.25841061368146   -2.76120280203749    0.54560610837312
C           3.02219164959511   -2.36189355092420   -0.56394600052894
F           3.01186489150074   -3.10250580542431   -1.68117370466313
C           1.46156934327555   -3.96275249424520    0.53980733998174
C           0.41681953174770   -4.29392253019093    1.38127870699330
C          -0.10513332940119   -5.55730388944404    1.10367568613775
C           0.55978208444767   -6.19988115603615    0.03978377593859
S           1.79625827643609   -5.24291304854366   -0.62789250261733
C          -0.01780086483849   -7.47628602670319   -0.14663525397107
C          -1.04442337525621   -7.64771615281121    0.79640634083796
C          -1.14091489003668   -6.43758548812497    1.60510331573660
C          -2.03154548955527   -6.19501341804786    2.61101060019720
C          -2.99656070660097   -7.14650947091456    3.00060250148542
N          -3.78170554127217   -7.91760336385926    3.32389156757186
C          -2.06021294273737   -4.97591187151813    3.31987592925930
N          -2.09984023799597   -3.98594619340903    3.89698041662636
C          -1.66379690772210   -8.89101140536793    0.70873527586585
C          -1.12013450026069   -9.67720265161146   -0.29548154632933
S           0.17811211047872   -8.84942314498850   -1.14954742126402
C          -1.48835305911424  -11.00299202857661   -0.65552695833833
C          -0.87975276086007  -11.68640901791417   -1.68269597362374
C          -1.17127541280151  -12.99360611769897   -2.06031646219428
C          -2.11405556976539  -13.80348967099988   -1.27297551267058
C          -2.84957422525795  -13.32774323721279   -0.24593510457896
S          -2.77721088597395  -11.70867492020659    0.31768128984504
C          -2.04816003027058  -15.10994951508123   -1.82957844302177
C          -1.14352664135058  -15.12062163117979   -2.89198801279719
C          -1.03640489840931  -16.39693554017387   -3.48787798252042
C          -1.84210184473162  -17.30160981617837   -2.87374432367629
S          -2.76265496687266  -16.64831728580952   -1.55890570017604
C          -0.61019737623948  -13.79660168232396   -3.07475969414488
C           0.27803123676468  -13.46747821795713   -4.12673556360213
C           0.52694484582735  -12.22567985614832   -4.62183822304483
C           1.42079492115114  -11.95077905398385   -5.68467171679111
C           2.27453594763588  -12.80408741210449   -6.36820901142885
C           2.98854458659912  -12.14481932188282   -7.36431537862492
C           2.68597156103494  -10.77468491557335   -7.45253022136794
S           1.52325625967109  -10.30143909766687   -6.29878341790432
C           3.45166358700602  -10.19872245204619   -8.50206069065583
C           4.24697019813729  -11.21207706930049   -9.06066240190860
C           3.98531541311877  -12.46244212894937   -8.37811383374520
C           4.54138633936824  -13.68366692906549   -8.63599686898216
C           5.49569828906478  -13.86063927207150   -9.65711484340185
N           6.27022103142600  -13.99464244624598  -10.49335387182788
C           4.19119739655540  -14.83730966709309   -7.90714763436922
N           3.90377516957078  -15.77774190618371   -7.31601522999111
C           5.05090337496737  -10.75011103866394  -10.10536647916162
C           4.87251370780642   -9.40331993368722  -10.34620228687553
S           3.71193955289046   -8.67859897419122   -9.23853195700121
C           5.50230059114903   -8.54439156851043  -11.31740300539013
C           6.24218813251262   -8.96338127634657  -12.39299716546409
O           6.84194481148726   -8.11113872180832  -13.24090898972105
C           6.75510194610366   -6.77490705822525  -13.06278812021246
C           7.44376973044379   -5.94740788961428  -13.95168056826732
C           7.36158954533878   -4.58129409457294  -13.80326196841571
C           6.59750030144326   -4.02097460107208  -12.77969367013020
C           5.91589659417893   -4.83292113333350  -11.90480240783838
C           5.98781842112547   -6.22438984395103  -12.03301626068318
C           5.27337082637142   -7.10970594143993  -11.12164508242046
O           4.51859971078729   -6.69057422769006  -10.24950059955549
C           6.47424139637225  -10.37450085598106  -12.82163528209465
H           0.03894462308013   -3.64694527929805    2.15035725824879
H          -2.46874496944116   -9.22494163082787    1.33824441840962
H          -0.08781840939078  -11.16317393507710   -2.20048291854338
H          -3.55137126304752  -13.93999023847887    0.29801430662698
H          -0.40027160289339  -16.63919199396228   -4.31961332200145
H          -1.96309291911839  -18.34062024946612   -3.11035803520820
H           0.75032653341765  -14.31456160590546   -4.60610975382520
H          -0.01183491542576  -11.37232422561137   -4.23730639366248
H           2.36835488376457  -13.84994288005085   -6.14218591754827
H           5.74586888352117  -11.37529180799491  -10.62764923699876
H           8.02806201571139   -6.39846257204495  -14.73785887267363
H           7.89453608060766   -3.93848100174415  -14.48707077833159
H           6.54343966455544   -2.94824866413877  -12.67822563593383
H           5.31516127067021   -4.43072726015964  -11.10356116737914
H           7.20709145058471  -10.86263446190702  -12.18050460036665
H           6.86459841438616  -10.36749370977251  -13.83678675242402
H           5.55010773370480  -10.94649933363995  -12.79238687645033
