94
 SCF done       -184.460075479722          0.000707562311
C           1.27537108444996   -2.46063011956713   -0.11534538324825
F           2.24279980136005   -2.13875878938760   -0.97772107450029
C           1.21267637118670   -1.83094397905352    1.12425223098355
F           2.10656395413314   -0.89785419763555    1.45613783293934
C           0.20343838468682   -2.19138054289944    2.01188304968426
F           0.11965599026230   -1.59509100909085    3.20333982521163
C          -0.72246106790808   -3.16186125494607    1.65687239644241
F          -1.69471884420251   -3.44416496836070    2.53337945908558
C          -0.69153451006818   -3.81449195226803    0.41522997068383
C           0.34318449870673   -3.43148965706764   -0.45239987948219
F           0.47904091968832   -4.03361420612599   -1.64140621712722
C          -1.66289032909879   -4.83390883731381    0.04523928347037
C          -2.15564354292542   -4.94690633468155   -1.22637900554855
C          -3.06747757706672   -5.91901767273287   -1.64739046917212
C          -3.48266713440897   -6.99803692487977   -0.73452410594206
C          -3.13397981175879   -7.06586417629387    0.56776638754906
S          -2.13821359952565   -5.91540639967023    1.35522166504771
C          -4.28514091870409   -7.86833442547738   -1.51765302890651
C          -4.37480103872620   -7.37341684388961   -2.81921759253491
C          -5.16944412315297   -8.19566117259229   -3.64877224745415
C          -5.64919265694188   -9.27058533863354   -2.97129735778664
S          -5.16501200169035   -9.33038450046019   -1.30840650284013
C          -3.64129759755128   -6.13862697385664   -2.90905236303715
C          -3.58995276875701   -5.37079817770060   -4.10394600855328
C          -3.29570359162674   -4.05595569323136   -4.23019667656692
C          -3.27834724162892   -3.36593541917807   -5.47215509642547
C          -3.05682423342226   -2.03300136062622   -5.67658997943313
C          -3.11021156423204   -1.63554844635602   -7.03170648888951
C          -3.37716872747507   -2.71825610981909   -7.91019098745068
S          -3.56037426775595   -4.20072201765090   -6.98942227595019
C          -3.46143911214378   -2.53030091148665   -9.27902671199842
O          -3.69719259624558   -3.44372623442820  -10.25656023341265
C          -3.89350487561845   -4.79801627003606   -9.93137003353979
C          -3.28394485010301   -1.21012416836139   -9.74442743503267
C          -3.03210382293270   -0.12577493879797   -8.86597712339395
C          -2.93058048851768   -0.31668647494477   -7.49802597906795
O          -2.68424297947870    0.60024092631574   -6.52451246334111
C          -2.41636426073469    1.93798095475576   -6.86820387642462
S          -2.90092008557222    1.36186894332215   -9.78660780576951
C          -3.16845626026950    0.52081896499364  -11.30085458381875
C          -3.34847510981517   -0.81777569845143  -11.10143940861380
C          -3.18826168533064    1.25414602661784  -12.53053716199297
C          -3.19409012022444    0.64908889046579  -13.75865576119957
C          -3.23575390971703    1.32669435019658  -14.98095194999522
C          -3.28633927786892    2.79295933002953  -15.03427458075220
C          -3.27145830820730    3.59269817211287  -13.94677841173841
S          -3.20851204452866    3.00532976501168  -12.33646130802856
C          -3.33398756590709    3.11008498782411  -16.41729171804542
C          -3.30572129916649    1.93955732704352  -17.17999415592442
C          -3.36200549288478    2.22700666139881  -18.56399201519105
C          -3.42538949957537    3.56243659602313  -18.80473549490485
S          -3.42061395841113    4.53598482450443  -17.37455674646751
C          -3.23563860807395    0.80943441741512  -16.28512747896518
C          -3.15852870296076   -0.57848556008172  -16.58334492913694
C          -3.07823446705850   -1.12850578817692  -17.81358018661567
C          -2.96416538764309   -2.54184834698810  -18.09705339875862
C          -2.87772011480828   -2.95827686923236  -19.39987393168807
O          -2.74516224200663   -4.24300259180540  -19.78412616351324
C          -2.67062511990401   -5.21887883180788  -18.85269797713066
C          -2.50670135676681   -6.53327629076622  -19.29399050737166
C          -2.42505424884998   -7.55175994393582  -18.37156282675083
C          -2.50611225757744   -7.27920419475972  -17.00718558605395
C          -2.66977278880529   -5.98472675714459  -16.57361735319871
C          -2.75429671919491   -4.93190773268570  -17.48971041438278
C          -2.92882939368933   -3.54741870475965  -17.02140023827918
O          -3.03305043070021   -3.30275131567679  -15.82804600143725
C          -2.91768030348574   -2.05406598400188  -20.59523624576444
H          -1.81145404904317   -4.23393097945562   -1.95941311213344
H          -3.47349910109058   -7.85583549428049    1.21911120093207
H          -5.37605840384757   -8.00769975116601   -4.68676432382865
H          -6.27514399112520  -10.05733674208122   -3.34500257667115
H          -3.86976367908959   -5.90634492501435   -5.00413830245532
H          -3.09753942503766   -3.44140495224834   -3.36411677868251
H          -2.86142231690532   -1.33485947450496   -4.88347777891693
H          -4.77376140947182   -4.93884258060371   -9.29854628134409
H          -3.01774499450974   -5.22786358900658   -9.43815584108391
H          -4.05178301828074   -5.29991731186819  -10.88501651928595
H          -2.21241986624508    2.44179909037501   -5.92418163606838
H          -3.27416667450719    2.41288542760499   -7.35169655675860
H          -1.54104492657077    2.02113802619595   -7.51767242899678
H          -3.54022253805227   -1.52908016743201  -11.88224676731464
H          -3.15912449556760   -0.43026135027797  -13.77519939136215
H          -3.29767734033550    4.66901373478407  -14.01354128491770
H          -3.36294890158511    1.50118683220753  -19.35642326924140
H          -3.47693295859407    4.05586908537247  -19.75584025438156
H          -3.14847352067651   -1.23649543983571  -15.72937286646834
H          -3.07797460390275   -0.47907635940180  -18.67392642945561
H          -2.44561813306639   -6.72275602343452  -20.35413720562280
H          -2.29656108216888   -8.56893966535250  -18.70955595235574
H          -2.43970909080026   -8.08701523865974  -16.29454232502951
H          -2.73614000626345   -5.74028695681882  -15.52427218982116
H          -2.08198259139642   -1.35631260746707  -20.58243420794927
H          -3.84577086694261   -1.48601468873427  -20.62210547556908
H          -2.85181612629220   -2.66296792723778  -21.49344260795939
