70
 SCF done       -132.665927666320          0.000374794953
C           2.46056192754332    0.30943525081138   -1.52530983109148
N           3.19241473202321   -0.78539800737481   -1.44617469011216
N           2.65944851692360   -1.91942454769203   -1.13313909363923
C           1.35610407620083   -2.01404107059925   -0.89603536754403
C           0.51093125389046   -0.89654040389471   -0.95635339629267
C           1.08830372445079    0.31308788262848   -1.27799566018414
C           0.82634320852578   -3.34002009124896   -0.55192371912134
N           1.19932583589552   -4.36530692601121   -1.31022646854771
N           0.77783617057212   -5.55266687961080   -1.06288424409965
C          -0.05147676071238   -5.80700604316224   -0.04923237717378
C          -0.50873202005101   -4.77772124241902    0.79142072381324
C          -0.05005219555858   -3.50849155965187    0.53231039930810
C          -0.42836589923272   -7.18973852533892    0.10040242772218
C          -1.20806374110351   -7.78300425762417    1.04660475712180
C          -1.34134574487318   -9.18255425251762    0.86391788279538
C          -2.08685289916965  -10.08717680099219    1.64381739676885
C          -2.90439233417318   -9.62487690829258    2.74829996097860
C          -3.73768028045044   -8.54252146133294    2.77813732988044
C          -4.37100016332660   -8.38163389124441    4.02798884530484
C          -4.03137333101589   -9.32178208308006    4.95776948451510
S          -2.90749294755073  -10.44777253935811    4.28208907331609
C          -4.50066074472046   -9.43381725054852    6.36292535025603
Cl         -5.48071147375098   -7.10493083615388    4.35512433484475
C          -2.00673074983723  -11.42958806211383    1.29036147388566
C          -1.26110304914168  -11.88858829267226    0.17394026029715
C          -0.55025726699394  -10.97882377183527   -0.63371862521387
C          -0.59461481706508   -9.63935186500134   -0.25131235235034
S           0.20061701901416   -8.32061341849077   -1.06721613909920
C           0.17612677068043  -11.38708437076342   -1.81902920112607
C           1.36754744434269  -10.90546478414063   -2.28349117427171
C           1.75053977876593  -11.48586818226306   -3.51048097019221
C           0.86481473583925  -12.39850536918514   -4.00661139652450
S          -0.47678558058560  -12.56322384614110   -2.93013255762012
C           0.95524761288661  -13.17275578547925   -5.27099290429016
Cl          3.21370872795933  -11.07983176898032   -4.31889261713199
C          -1.34212273075597  -13.29747691672528    0.04245388535344
C          -2.13395368206305  -13.88274771330018    0.98402068968485
S          -2.82223454080794  -12.73684121864866    2.10213618065465
C          -2.46795945854587  -15.27186369450021    1.16688911424148
N          -3.31743094065019  -15.52051055306131    2.16534893511045
N          -3.70796083366949  -16.71750673734053    2.43182259694354
C          -3.27450824391058  -17.75092581637455    1.71640696157181
C          -2.37325100515080  -17.58597618724488    0.65094238575098
C          -1.95629460629742  -16.30940470794504    0.36586919370523
C          -3.77806659091964  -19.07475678665876    2.08797796758885
N          -3.29606046085152  -20.11163110974699    1.41019483726122
N          -3.68886875767536  -21.31669692740113    1.67442807217773
C          -4.57670887840180  -21.53987812350580    2.62454489630368
C          -5.13853123935091  -20.51564572088711    3.38840417007216
C          -4.72536618999304  -19.23120730267151    3.11126054242807
H           2.99451936674136    1.20928091292718   -1.79455873521739
H          -0.54980362985963   -0.99295494220939   -0.77524291030907
H           0.50844955134901    1.22138402866352   -1.34398960389018
H          -1.18668908767235   -4.98070706495667    1.60574819484787
H          -0.33642206017721   -2.66761893585115    1.14699820108290
H          -1.65830408844362   -7.25713803101096    1.86810972174875
H          -3.93244364595101   -7.91015252874276    1.93162027213618
H          -4.09966258435579   -8.61776650523270    6.96513431399793
H          -4.17944765744166  -10.37741024348027    6.79463630028492
H          -5.58773227119925   -9.37393741675271    6.40203116359065
H           1.97306412812553  -10.18876584472743   -1.76203916636111
H           0.82076458590914  -12.51286072248927   -6.12877124589342
H           0.19144013157756  -13.94506982234896   -5.30206237037052
H           1.93805522972716  -13.63451837195617   -5.35800830948158
H          -0.82225756116241  -13.84840211503168   -0.71869602110655
H          -2.04207076825376  -18.45105222220302    0.09931854388862
H          -1.26580509868388  -16.10219222354343   -0.43648637591816
H          -4.84316797853062  -22.57646392593246    2.77384852303362
H          -5.86424081766420  -20.72835499539010    4.15878942987382
H          -5.09186712118114  -18.36307755195253    3.63528273003939
