86
 SCF done       -184.108894832643          0.000713883628
C         -13.64713709569992   -3.97346957257193   -1.95050542628463
C         -13.28529313013808   -4.93201707077145   -2.89219380772067
C         -11.90403404348264   -5.21991436437835   -3.16262221621280
N         -11.57676292992598   -6.15290994144113   -4.07601897400911
C         -12.52934235419564   -6.78157867932958   -4.70307621985472
C         -13.88979284534527   -6.49650629650318   -4.43623496498672
N         -14.25339914743389   -5.60520863877914   -3.56326883143359
C         -10.84867386788966   -4.55469209402184   -2.49932955447997
C         -11.22890702018710   -3.58468983124485   -1.54989749439339
C         -12.62741788565024   -3.30556249835105   -1.28504899885767
N         -12.76905493310227   -2.35574378234937   -0.34832148945019
S         -11.32236619722825   -1.87888395234109    0.13333812803091
N         -10.42672313496848   -2.82813315093155   -0.79645028510215
C          -9.49528720274400   -4.87693022593326   -2.79332366830883
C          -8.36009593458456   -4.30653675508072   -2.23775726400960
C          -7.19462691300175   -4.87133582540192   -2.74316987702489
C          -7.44833594358258   -5.88260038433899   -3.69200104165985
S          -9.12135422703978   -6.12847719955014   -3.96524853302240
C          -6.20326816494484   -6.39970786739602   -4.12487842793891
C          -5.16697726024441   -5.72132890760281   -3.45774275175058
C          -5.75943965675078   -4.73260700385640   -2.56871895536682
C          -5.10135251046783   -3.86523276903210   -1.74686199953866
C          -3.69324247533840   -3.83143239645058   -1.67059206399621
N          -2.54846319951692   -3.80632695016000   -1.60803487642417
C          -5.77873032581619   -2.94392853620931   -0.92028047866326
N          -6.31325752642033   -2.18917400599545   -0.24229632412024
C          -3.89981775144262   -6.18140240721102   -3.80848320739206
C          -3.96063362525844   -7.20761966177740   -4.73535166367366
S          -5.61453349918832   -7.60185900472149   -5.18616128236259
C          -2.87995248391786   -7.93522406607073   -5.29080463042735
C          -2.94264969658587   -8.98497680544176   -6.18997811992547
C          -1.67861156877794   -9.48970984824437   -6.49114847290660
C          -0.64458392165225   -8.81567021387101   -5.81805594443315
S          -1.22772605841378   -7.55943882383648   -4.81813465583843
C           0.58959618254380   -9.41692106651732   -6.16727537126691
C           0.33773456651447  -10.47282481457134   -7.06075417623986
C          -1.09512578162268  -10.54953577637665   -7.29855075447284
C          -1.75347516554313  -11.43401830484222   -8.10134730657773
C          -1.07455965044965  -12.42752047558067   -8.83773119357663
N          -0.52373700591726  -13.23553888772246   -9.43642511726755
C          -3.15656656542815  -11.41442920899650   -8.24696275478898
N          -4.29705386823116  -11.40266181842742   -8.36460977947317
C           1.49532873257814  -11.14878543231413   -7.44340369750911
C           2.62566204387418  -10.61704566978620   -6.84847836562633
S           2.25058889652321   -9.25174944712689   -5.80448974078961
C           3.96290808182299  -11.06542375751938   -6.97740569866017
C           5.09247186955941  -10.53389102499813   -6.37949038843751
C           6.24033191830300  -11.25317817695762   -6.70404923512095
C           5.98481443048118  -12.34257704327586   -7.55671761739199
S           4.33081344983739  -12.47499196822250   -7.96305473639492
C           7.19953282720853  -13.02318598416008   -7.81413894192498
C           8.22899383389308  -12.35642556531038   -7.11915410094936
C           7.66492058692546  -11.22376209923001   -6.40625643665196
C           8.32344632247186  -10.32221551201032   -5.62235282055365
C           9.71560714901329  -10.38472919642898   -5.40184926772809
N          10.84589604850534  -10.42093013798500   -5.21278729328808
C           7.65152516031211   -9.26191145444799   -4.97880182163440
N           7.10315924607741   -8.40186064858936   -4.45458697069910
C           9.46970587245278  -12.95933842959601   -7.29207779752330
C           9.39319563144215  -14.07677923390442   -8.10943868222364
S           7.76346547185276  -14.38882321787323   -8.68079489293229
C          10.46018473478958  -14.93694509057672   -8.48832765941688
C          10.22236112402562  -16.04460278915516   -9.33260237087855
C          11.26861957224937  -16.94213493998023   -9.73716868315323
N          10.97634244692955  -17.98786131792442  -10.55066410546469
C           9.74503859654643  -18.14060503172288  -10.93696896029214
C           8.71297364234443  -17.25835212186805  -10.53734071143609
N           8.96117834511609  -16.24488240024827   -9.75818160582531
C          12.57896949455629  -16.75659634673588   -9.30701078041497
C          12.83793993699624  -15.67524618245577   -8.47489874989083
C          11.79143653470206  -14.76061925280209   -8.05988942588819
N          12.26738568543457  -13.80020764552684   -7.26321447058292
S          13.84147090304364  -14.01957412713521   -7.05992695548743
N          14.02564090784230  -15.32973585285387   -7.95571747691102
H         -14.68381700922051   -3.76457177055553   -1.75068973923153
H         -12.23281869053214   -7.52389999310726   -5.43050648258110
H         -14.68029882771010   -7.01871880559003   -4.95803712555708
H          -8.41712628887550   -3.52476633132705   -1.50264932805279
H          -2.97143732783551   -5.80635571682219   -3.41613075718231
H          -3.87058155137706   -9.35377337768999   -6.58882592655595
H           1.53204386822804  -11.98843629489239   -8.11406479378996
H           5.06009786259084   -9.66950483625751   -5.74054847273649
H          10.39762525682216  -12.63252865901168   -6.85966211162102
H           9.53815457805366  -18.98144645337837  -11.58508508584487
H           7.69021593824062  -17.39131001750548  -10.86038975884275
H          13.35793451271333  -17.43314076117274   -9.61320912939140
