62
 SCF done       -125.134874680221          0.000849227197
C           0.53166343934181    0.25166973470827    3.53852986698448
N           0.97116471414213    0.01210140579244    2.31787001907872
N           0.78179489046338   -1.13388666019708    1.75629719793818
C           0.13467895238243   -2.11090139748426    2.39781670196469
C          -0.36275969323569   -1.92953292461668    3.69996910042373
C          -0.15557978469222   -0.70361644966847    4.28926524660521
C          -0.01744219146988   -3.34837906641082    1.67643443626476
C           0.44950446190844   -3.61849879150235    0.40937138559712
C           0.13295999643888   -4.91800359640237    0.00301480522067
C          -0.58186543378653   -5.63178695769325    0.97908265970041
S          -0.86266447217012   -4.71356576021483    2.38575342392814
C          -0.85925726213476   -6.93243647006338    0.48150522157596
C          -0.31862493269445   -7.04014476890411   -0.80837153600754
C           0.32217313905842   -5.77778537743563   -1.15349746541137
C           0.95795830036443   -5.47563058026021   -2.32107323767611
C           1.06779653653284   -6.40967876554527   -3.37318214040966
N           1.15544965511779   -7.16872816963268   -4.22810152396594
C           1.54799730921975   -4.21665534851483   -2.56473447172634
N           2.03226200526169   -3.20051106010473   -2.78025988252955
C          -0.54140446333148   -8.29007537777160   -1.38714857137264
C          -1.24776715356638   -9.12988597163476   -0.54665220054292
S          -1.64226824757527   -8.36453982910307    0.98499763391195
C          -1.65797122557621  -10.46406091871309   -0.80106503458853
C          -2.37250893081026  -11.30198845688918    0.03461046142677
C          -2.60537227504316  -12.54708028505178   -0.55075020961022
C          -2.06180750717856  -12.65346733632037   -1.83975772553058
S          -1.26446012848929  -11.22612194587655   -2.33451624955618
C          -2.35445241867447  -13.94612709272754   -2.34697923220000
C          -3.08397802751106  -14.65715798963029   -1.37859437558902
C          -3.26517574426095  -13.80252836712455   -0.21685938954127
C          -3.91469677109380  -14.10132704055350    0.94427593105491
C          -4.52629019778000  -15.35226465996081    1.17438404045421
N          -5.02740078950969  -16.36290391824066    1.37757446510189
C          -4.01919378520526  -13.17174642120784    2.00068074917986
N          -4.10526800095961  -12.41655660384209    2.85917822959482
C          -3.42137280354511  -15.94651403972762   -1.79784429204598
C          -2.95469308683347  -16.21331687884462   -3.06695898910015
S          -2.08334746206574  -14.85543768120294   -3.76074143172170
C          -3.12489451569176  -17.43442766457304   -3.80586205605670
N          -3.81669846740825  -18.40324103210807   -3.19501596778867
N          -4.02748292924843  -19.53113722003144   -3.77553401257969
C          -3.56863146779084  -19.77643737171072   -4.99941971841090
C          -2.82925195062235  -18.81936137454896   -5.71523680499975
C          -2.60103867231044  -17.61459039364014   -5.10020927501705
C          -3.86734311626878  -21.08902630245490   -5.57395595409351
N          -3.39310437230591  -21.33063812149459   -6.79226405569516
N          -3.61246696069651  -22.46353247727639   -7.37676797129334
C          -4.31292507165988  -23.40588511674423   -6.77486900075651
C          -4.84945085274787  -23.24510447461970   -5.49634104966188
C          -4.61960478451196  -22.04059984379239   -4.86851622114701
H           0.73902858939727    1.23925743936029    3.92322132261987
H          -0.88389983592943   -2.72955875335877    4.20563886446110
H          -0.50647190163461   -0.48539922873392    5.28635528638597
H           0.98869677721632   -2.88514852755542   -0.16135431436999
H          -0.21403488096243   -8.58788699228375   -2.36705699255680
H          -2.70001559038992  -11.00529250658149    1.01484502147429
H          -3.97569131940315  -16.67453681511084   -1.23471396695246
H          -2.47128539996814  -19.05464326771601   -6.70443288142676
H          -2.04182823757580  -16.82388378813384   -5.57957367905595
H          -4.44501947203346  -24.31700917982221   -7.34052310168294
H          -5.41822099347399  -24.03371242480228   -5.02745597566587
H          -4.98575518504689  -21.80593274376174   -3.88188111262281
