111
 SCF done       -199.110825618236          0.000708854549
C          -3.68206107424647    1.13479063034050   -5.42402798331846
C          -2.98305229115373    2.08654908020775   -6.13040748079979
C          -2.24651284165555    1.81922330399933   -7.29969819913846
N          -1.62655286344124    1.66151754515160   -8.25421558316278
C          -2.92048336330798    3.45365240384844   -5.79837393164091
N          -2.82698669214329    4.58328062987946   -5.60612024384144
C          -3.80874539536708   -0.27133188904771   -5.79854097749995
C          -4.66672323467440   -0.90572237839987   -4.86897274380724
C          -4.98108959243719   -2.23931963857826   -4.94342583648093
C          -4.42775045224052   -2.98383555595517   -5.99188163766497
C          -3.57255109903504   -2.34130317292045   -6.91527685477631
C          -3.25022992235039   -0.99101247914973   -6.83672679979435
S          -2.99270744108423   -3.44676909590705   -8.12578340235478
C          -3.89807779281191   -4.73850577225521   -7.38356215029237
C          -4.59809494826868   -4.36471806956409   -6.28701128282383
Br         -3.83358129162343   -6.46119525647896   -8.12556584191394
C          -5.10797981097102    0.08171573684933   -3.85794654344991
O          -5.77310670440616   -0.16797188103156   -2.86932352881161
C          -4.47377011433495    1.35185467719167   -4.24073088201410
C          -4.46641805968256    2.49094823260516   -3.46396884625739
C          -5.32840912592500    2.82541356317193   -2.40791889584716
C          -6.65704429906244    2.43559045629420   -2.30141736956814
C          -7.32850478951929    2.82968779235586   -1.08706333696427
O          -8.61948501577707    2.46773331722498   -0.86043183828360
C          -9.34412502605461    2.16521939382493   -2.03406804501680
C          -8.54243317893287    1.23429428067119   -2.93446446795540
O          -7.31459625277631    1.83598904685129   -3.30218264174106
C          -6.57032878449538    3.51640571919595   -0.16088536757472
Si         -4.85614435968893    3.78178246700059   -0.87151620784601
C          -3.44497355862361    2.92717575646001    0.02004199287364
C          -4.50992237893593    5.59130160273740   -1.21502737915147
C          -7.05612100633803    3.97140804019847    1.10228911520112
C          -8.34201997600401    4.39735341615646    1.34897917794544
C          -8.65884594257336    4.70986320456366    2.72613078916114
O          -9.83714588343079    5.27366730346279    3.06663657714003
C         -10.59817572221218    5.76309092953626    1.98241397891540
C         -10.57606278190696    4.76760490560302    0.82917521218845
O          -9.25374971404525    4.59371335169015    0.36554605548790
C          -7.65757292797211    4.47207350817743    3.64679074353426
Si         -6.09539834008116    4.04044297948264    2.70775136699176
C          -5.33341476313222    2.39162288384790    3.18261103369576
C          -4.84262381489395    5.43887364943832    2.74102461662345
C          -7.81420716222385    4.58873944351981    5.05502551544286
C          -8.98857151857741    4.30926381788044    5.72531359804916
C          -8.97768696726624    4.50550539130712    7.14655903731808
O         -10.01114224719023    4.13469140259763    7.92354273307969
C         -11.03267094001941    3.39395275890029    7.27978781017175
C         -11.26598355659914    3.93172172918757    5.87345272528278
O         -10.08907986124687    3.79508302463978    5.10917079418351
C          -7.79835229033500    5.01634830167629    7.68559720880726
Si         -6.54720634638347    5.18024878217942    6.30057765210675
C          -5.08014644450824    4.03833269189684    6.54633531685390
C          -6.07142437778591    6.97305350423601    6.04480673144121
C          -7.56135999248245    5.31237692907788    9.02885988875036
C          -8.40402632286679    5.52186920292058   10.10407234597005
C          -9.79875069806377    5.80605600329260   10.21306268826764
C         -10.60918680780426    6.35912609903863    9.24117259557895
C         -11.99827839391818    6.52114357178674    9.35999972682505
N         -13.14440640420192    6.61839589386258    9.36791044450420
C         -10.11298344079226    6.86358716618666    8.03037515318399
N          -9.73899785662156    7.29793182482153    7.03334768119193
C         -10.19147898748115    5.59910990609086   11.60708549102743
C          -9.02286632141824    5.36602199307987   12.37244574100784
C          -7.85148345147244    5.36699071466268   11.46628252212426
O          -6.68510716154802    5.23368307462269   11.77549575998674
C          -9.05621077764419    5.17562733359195   13.73053060405891
C         -10.30513964869304    5.20579401166946   14.36373913481868
C         -11.46527614488371    5.43087103196783   13.58973180630646
C         -11.43012892739523    5.63488826320784   12.21399855697748
S         -12.90005932177717    5.42359351342543   14.57186974116889
C         -11.93131268590061    5.12587581620217   15.99089077786798
C         -10.60386434586529    5.03499491453719   15.74419103281671
Br        -12.76600829642260    4.96268250363301   17.66412079002559
H          -5.63418824247589   -2.69784618802248   -4.21734102375840
H          -2.58688032743067   -0.54872635210328   -7.56100930376974
H          -5.20842439029665   -5.03350652543679   -5.70788895780514
H          -3.65114186200636    3.18733572901230   -3.62110707678162
H         -10.27328396767201    1.69314312477967   -1.71034154911339
H          -9.57407468318959    3.09539245031953   -2.57262355209749
H          -9.07210379708806    1.02503525612940   -3.86524533883842
H          -8.32719826976717    0.29504505516092   -2.41077735802617
H          -3.60858012749506    1.85343398242912    0.09365693741741
H          -3.29455147755039    3.29795494414272    1.03055359999668
H          -2.50563555405942    3.06483411595100   -0.51282530263622
H          -5.34403907937957    6.07444913171318   -1.72069720699085
H          -3.63932681335966    5.71678021697955   -1.85640183562694
H          -4.31970146687818    6.15585941885745   -0.30538970924865
H         -11.61053109505565    5.91613766720108    2.36003056949444
H         -10.18437824197027    6.72384697107532    1.64564468370917
H         -11.15673652611896    5.13024722300435   -0.02056554280150
H         -10.97879886100031    3.80322843246568    1.16729591846673
H          -5.93284538844665    1.86630037326322    3.92294788247236
H          -4.33697779646006    2.49868441524368    3.60462519714772
H          -5.24238776101708    1.72910014057830    2.32488191738266
H          -4.04222696591923    5.28304025140776    2.02171678755870
H          -4.37663449378991    5.53867382037512    3.71842719252714
H          -5.29968370121733    6.39771145802106    2.50496913795885
H         -10.73557457581348    2.33815911280537    7.22905009160862
H         -11.92409522606672    3.49482952651345    7.90209508899794
H         -11.55586337342901    4.98988214464275    5.92814846076197
H         -12.04129601605461    3.36298908693078    5.35842240008635
H          -5.38008051873153    2.99779540438783    6.65308825395232
H          -4.52444166101699    4.30032834814356    7.44453949508813
H          -4.38015322913294    4.08492856340005    5.71628902767292
H          -6.95638945892857    7.60811519761462    6.04147463336983
H          -5.54951512317997    7.14397882042086    5.10669067411086
H          -5.42424111389649    7.33610404603839    6.84143965426655
H          -6.51145538215694    5.33625738264752    9.30833673869517
H          -8.14971224887030    5.01083977737088   14.29160986963694
H         -12.34204700682964    5.80482227145848   11.66553037787310
H          -9.86329384932178    4.85498997064403   16.50199320204189
