111
 SCF done       -203.994299595530          0.000908982880
C          -0.95596572880596    2.57527455630489    7.62533184710855
C          -0.61440258689855    3.77228755242259    8.20521632542086
C           0.34061238794703    3.90461918396438    9.23386790195335
N           1.10426911379367    4.08136946363825   10.07334407387056
C          -1.11410208442286    5.04184691146397    7.84823007317375
N          -1.44541413243998    6.11761338090537    7.61665223487149
C          -0.34072491060726    1.29126443628024    7.94627826006512
C          -0.82737740326694    0.32423873567803    7.03662389713278
C          -0.43517546848012   -0.99116278921388    7.06903053013623
C           0.47882702192258   -1.37416524470866    8.05628119716256
C           0.95538390831610   -0.40241122455733    8.96668842005022
C           0.56232532398888    0.93016551876373    8.92835523044694
S           2.06884024821105   -1.09052379334151   10.11053599168742
C           1.87989709756699   -2.65270908589320    9.35952629789620
C           1.02964573553470   -2.66123557094743    8.30609429501141
Br          2.82384054952992   -4.12586051801873   10.03662846136889
C          -1.79050404057025    0.95685853137879    6.11122140718505
O          -2.34740089927500    0.38753802040488    5.19229844353886
C          -1.91544251575157    2.35700220473772    6.55909398051754
C          -2.84038656608097    3.30140964791669    6.17697631157841
C          -3.83199122296721    3.28270803986396    5.18826501157338
C          -4.13479734994969    2.39031503080297    4.16141410937216
C          -5.23639430332429    2.74940697913421    3.40610500461639
C          -5.80488287484271    3.95957131056408    3.85872571708006
S          -4.96279757207894    4.63996000358424    5.18066811996879
C          -6.97310085475507    4.36793740209986    3.18125591587414
C          -7.41402390516625    3.52013436972992    2.15556953255199
Si         -6.23060574867535    2.07517091640553    1.96886259572304
C          -5.29693158500360    2.11276431783126    0.34665303416647
C          -7.02547547232757    0.41932163294640    2.32514566017133
C          -8.60310534701373    3.98075727962869    1.59681288505348
C          -9.07440052579518    5.15156697081284    2.16604284996293
S          -8.01188932963752    5.72170522907747    3.42847617665539
C         -10.27579401040843    5.83719172638641    1.86019522972123
C         -10.74085861022376    7.03308829299973    2.37513568626287
C         -11.99869572832429    7.40281270520105    1.89845701885615
C         -12.49718183534450    6.45212845482561    1.00008402432987
S         -11.42058443031492    5.13831724285305    0.73643106634540
C         -13.79310402286684    6.70210698992669    0.49257072291515
C         -14.41055148274863    7.87461499973852    0.94354405404696
Si        -13.25526178256656    8.77896849125474    2.11230557508023
C         -13.92427792906236    8.90001596986390    3.85650111547508
C         -12.66388685992120   10.42342376830638    1.44127202540436
C         -15.69663958776145    7.99973039154447    0.41775394702314
C         -16.06794064103476    6.95582085331992   -0.40947942698070
S         -14.78452327502321    5.77686393339501   -0.56386830875423
C         -17.30474879649185    6.74811694223573   -1.06809445843185
C         -17.66932892783395    5.66930512649057   -1.85544973606323
C         -18.97438073144175    5.73658549535915   -2.33598642835996
C         -19.61579010934068    6.90506307120500   -1.90208493358948
S         -18.60967799347518    7.89816793310216   -0.91662420736815
C         -20.95056251481099    7.06901764114871   -2.32886451194972
C         -21.46479582278481    6.02028191229408   -3.11653196854116
Si        -20.14442630996938    4.72001985035130   -3.39262947782446
C         -19.63382250452502    4.61042378835289   -5.18805148806762
C         -20.55016790267684    3.06220739802937   -2.62135056061164
C         -22.75618184056233    6.29024131296691   -3.53102808740312
C         -23.25830604049558    7.51085958412041   -3.08245546426599
S         -22.07597933551937    8.33229916990370   -2.07751229315368
C         -24.52062264768208    8.09156918192835   -3.26795580562362
C         -25.50176913032479    7.77274707246187   -4.17144160105977
C         -25.50358377784897    7.01378914596157   -5.39546068068400
C         -24.44781666176969    6.83073489630996   -6.25733107254423
C         -24.53478605556377    6.12291079000169   -7.47091353232217
N         -24.53769515579528    5.53607184157754   -8.45860681898947
C         -23.17110719749328    7.39330682646368   -6.07183528829581
N         -22.11928124512783    7.84845419133772   -5.99425674481403
C         -26.89492740527614    6.69155583611540   -5.70793646900779
C         -27.73555236385879    7.41646334676011   -4.82749639718422
C         -26.89678954819377    8.18045274641150   -3.87904701161072
O         -27.26773641183373    8.94443517500993   -3.01520781561813
C         -29.10517778663309    7.35315323301176   -4.89629474034247
C         -29.67219304726563    6.52578616999105   -5.87254170851827
C         -28.82385090995985    5.79655582767167   -6.73771265758743
C         -27.43696403194690    5.86796981711419   -6.67471962601720
S         -29.73298368095807    4.82922343987976   -7.85929293832167
C         -31.22073498440921    5.41343915167100   -7.16233128132740
C         -31.04799850160100    6.28606240580941   -6.14190839941033
Br        -32.86098915361470    4.81293397629192   -7.84674147934570
H          -0.82376468775669   -1.70303808208137    6.35771639801285
H           0.95279800509671    1.63002485632092    9.64769416718528
H           0.79793420644066   -3.53748329542503    7.72853891961407
H          -2.83999540646991    4.21533115788909    6.75983067517544
H          -3.55604308200519    1.50057083213954    3.99801885834568
H          -4.84860098473609    3.08507537492148    0.15041040157824
H          -5.94483557897154    1.88320593528140   -0.49694891407889
H          -4.49100157561404    1.38191916807478    0.33564503185163
H          -7.59344531584059    0.42443692042889    3.25364029757534
H          -6.27828670846799   -0.36658567421639    2.41355770842617
H          -7.70887908131711    0.12040149618947    1.53286040572198
H          -9.12870442027606    3.48421274553411    0.80007890562741
H         -10.16941883055052    7.60763478281997    3.08308585787276
H         -14.26502710676656    7.93876008572874    4.23649932785141
H         -14.76837952006719    9.58408133292493    3.91455903266003
H         -13.17060498735037    9.26853359181432    4.54932427560509
H         -12.27529054119029   10.34108596187792    0.42799585769094
H         -11.86964119676214   10.84343941264013    2.05501377942945
H         -13.46652445420940   11.15761788132502    1.41695841399153
H         -16.35995037136876    8.81992258330800    0.63014307295430
H         -16.99097356092929    4.85966113164868   -2.06027305154811
H         -19.52106356656402    5.59542375638648   -5.63775944392783
H         -20.37435485860248    4.07674456019447   -5.78078692422876
H         -18.68845803694818    4.08647905458478   -5.31442698746500
H         -20.85160700431783    3.15140951389498   -1.57919534758608
H         -19.69562986434605    2.38932231657460   -2.64966603709715
H         -21.36150725462980    2.56341365981374   -3.14752920590747
H         -23.34833447583708    5.60143520108158   -4.10734759395640
H         -24.80604807666934    8.85555497676725   -2.55080887523929
H         -29.72195649750074    7.92301341153203   -4.21930765955398
H         -26.83100142890352    5.29060355662330   -7.35321284329342
H         -31.85551397246125    6.74276427688263   -5.59942734181204
