129
 SCF done       -217.432553603458          0.000741202930
C           0.86351102556165   10.99014638336756    7.49712043588061
C           0.77399072106192   11.45142426850485    8.78494045747308
C           1.31099484549419   12.68242829256390    9.22092486224869
N           1.72356506174280   13.66519607199546    9.64770162370051
C           0.17542457001351   10.80143211743358    9.88644381387869
N          -0.27025519010712   10.36872009601180   10.85342727503217
C           1.55394594187723   11.68975019839191    6.42068917340441
C           1.54569732802919   10.86465615189726    5.27323361633035
C           2.12743658629292   11.23283477052512    4.08431583612823
C           2.74451327893931   12.48559578003258    4.02221683636840
C           2.74309468051217   13.31002189847480    5.17276511868031
C           2.15837828853571   12.93356206992975    6.37507827419849
S           3.55423962889450   14.81868754352850    4.87802246160122
C           3.88041053919287   14.32675123830594    3.23725178159349
C           3.40713331077581   13.09752658366443    2.92319575712119
Br          4.81404178767674   15.48296611535747    2.09288419224316
C           0.83422056117338    9.60642871417776    5.56825587214405
O           0.71281230329655    8.68922894499238    4.78174267789372
C           0.34711510464275    9.73006515544990    6.96352740708443
C          -0.48420404988164    8.92626197892510    7.69289983338254
C          -1.15376386714531    7.68607098528900    7.45243676376294
C          -1.99805950189010    7.22005411881947    8.48472601991571
C          -2.70978350615596    6.04756600913169    8.37097529992216
C          -2.58990226794392    5.30279990409081    7.20204236171416
C          -1.74548568683557    5.74875305800444    6.16923282813067
C          -1.03329297000390    6.91374667656733    6.28305265573846
C          -1.77205154158793    4.78822148916761    5.00341217835637
C          -2.29400575657617    5.47778776264620    3.73895823322019
C          -0.38456635428874    4.19074015918763    4.74979252906495
C          -2.74050523915273    3.74154199766782    5.50163639241730
C          -3.17690682797414    2.60570356195864    4.86403202424296
C          -4.09761026264855    1.76788340649107    5.50057391440087
C          -4.55581444218101    2.09522471985488    6.77833630983186
C          -4.11539918917844    3.23133729997767    7.43042715591704
C          -3.20607444620626    4.06121204266708    6.78897057485619
C          -4.57657260974027    0.57031877840913    4.80049277557614
C          -5.92814690172924    0.22551034213179    4.81744051641837
C          -6.40414697816035   -0.85145822291429    4.09147772734215
C          -5.51064240449433   -1.60024651898474    3.34204952248779
C          -4.14325935998291   -1.28341120690218    3.34861686633432
C          -3.67714682751622   -0.20903772297756    4.06693791509527
C          -3.36551439043808   -2.24056640747496    2.47444247212499
C          -2.60046477047411   -1.50194504555099    1.37346599016923
C          -2.40681832394547   -3.08911725945736    3.31723921490630
C          -4.47609212973788   -3.09247502363429    1.90323789267197
C          -4.39058341512967   -4.09478653304100    0.96722868549093
C          -5.55436169742624   -4.74672148419759    0.54885550691087
C          -6.77996207562163   -4.38853805611577    1.11164261089441
C          -6.87242278598602   -3.38062474982911    2.05423015529312
C          -5.71738717188340   -2.72099296902058    2.44296680730947
C          -5.48566451024112   -5.76765314155089   -0.50340911307687
C          -4.65046943160457   -5.56697898966710   -1.60536716330301
C          -4.57449145792854   -6.48969775964919   -2.62970083517028
C          -5.34721006484079   -7.63840339200620   -2.54848806284457
C          -6.18760455022637   -7.85435561174085   -1.44445114924693
C          -6.26068577872950   -6.92852139229096   -0.43003151908725
C          -6.92593933343540   -9.16726778407897   -1.58358977801567
C          -6.56605423670796  -10.12917911979575   -0.44734788243561
C          -8.44074351236419   -8.94337036338460   -1.64326159747117
C          -6.40802545240033   -9.66359864630992   -2.91462254682855
C          -6.75158270763577  -10.80035384170890   -3.59837306779877
C          -6.17062467794736  -11.05211202409797   -4.85297749230628
C          -5.20995486830836  -10.16409704882539   -5.35716563754614
C          -4.87627555689801   -9.01062116753166   -4.68021476972389
C          -5.48465307681223   -8.75304918338236   -3.45963861410190
C          -6.50875517932996  -12.21644152014474   -5.62270854374445
C          -7.66471487966322  -12.92510197401672   -5.64404844083186
C          -8.98724482926644  -12.66789778673340   -5.10476931195537
C          -9.56900679236849  -11.44173582680810   -4.91955256508917
C         -10.88071000584356  -11.25991581810231   -4.43713643242205
N         -11.92890090693929  -11.05951172557225   -4.01357846168731
C          -8.96032930195642  -10.21518217843491   -5.26076542469610
N          -8.55976741413661   -9.18842774684816   -5.58050645689682
C          -9.68510435026714  -13.94803393970961   -5.04330839044319
C          -8.92196796974931  -14.91638076500925   -5.74363798062724
C          -7.66787069142825  -14.29822162839681   -6.21913939410773
O          -6.80001237416557  -14.80536185342561   -6.89159171132149
C          -9.34441973288912  -16.21376162424091   -5.90334895860921
C         -10.57074947694244  -16.57546623840928   -5.33638387975468
C         -11.31783978623281  -15.60529015744557   -4.62597774390124
C         -10.89581290179751  -14.29073357733308   -4.47133293526937
S         -12.79563582149708  -16.27040042625740   -3.99903798715325
C         -12.39844401891351  -17.81936575450214   -4.69493635235400
C         -11.21947029270279  -17.84059605178827   -5.36041137676168
Br        -13.57665089068128  -19.26184638997720   -4.47410763542204
H           2.10428051512265   10.57476470361605    3.22979089605339
H           2.18456144907880   13.60168967045801    7.21896727309114
H           3.51941775669320   12.63976670734384    1.95735004142857
H          -0.71642091119199    9.31661663063901    8.67724630349496
H          -2.08591911812295    7.80584984333836    9.38882997272418
H          -3.34965957932282    5.71465704843908    9.17425792578293
H          -0.38908651718996    7.24039553955396    5.48604892450456
H          -1.61942593255391    6.27834230557458    3.44607957365575
H          -3.28009070174231    5.90094529841935    3.91942723172058
H          -2.36698692984423    4.76407545608998    2.92187287059856
H           0.31383120071542    4.97549353821833    4.47053434175782
H          -0.43026436445896    3.46076376018859    3.94508266843056
H          -0.01548983571363    3.69788089836534    5.64699731804102
H          -2.83876940633267    2.36726681140060    3.86631285964071
H          -5.25377354236421    1.43362926095904    7.27020079258055
H          -4.47408470402628    3.46782764098282    8.42113592615412
H          -6.61890331385823    0.83674593927009    5.37989112462850
H          -7.45683631269592   -1.09212485383677    4.09811565804243
H          -2.62459248167567    0.03437118640482    4.08014842981277
H          -1.84827001405949   -0.84834235597626    1.80889861176696
H          -3.28453488782543   -0.89934098921788    0.77943572791325
H          -2.10263553813054   -2.21191753316905    0.71732457537504
H          -1.65637761311132   -2.45712852050149    3.78653303093087
H          -1.90431528768331   -3.82367403716200    2.69219986855351
H          -2.95554111887672   -3.61366566571156    4.09670255678724
H          -3.43526964791030   -4.39040630456935    0.55853721838371
H          -7.67797538850866   -4.88548065591915    0.77464239386823
H          -7.83170984937234   -3.10387457765361    2.46576268218897
H          -4.07468532166735   -4.65526769728630   -1.66685189415986
H          -3.93245198523536   -6.31469160315225   -3.47983554730177
H          -6.89410538061717   -7.09505277079555    0.42899174494397
H          -6.89582363928369   -9.72436787543997    0.50634801399149
H          -5.48917390662236  -10.27980489471370   -0.40710686137081
H          -7.04656565304831  -11.09282976244790   -0.60012505874011
H          -8.78886912530254   -8.47161377703450   -0.72766921265636
H          -8.96190919998909   -9.89075003266472   -1.76284221892416
H          -8.69255328879587   -8.30214913867765   -2.48537005132410
H          -7.43844576122233  -11.51768734962265   -3.17214702639210
H          -4.75959295754849  -10.37677387774576   -6.31555153316872
H          -4.15739263525000   -8.32030331266840   -5.09431762671995
H          -5.71694644574481  -12.62513498561734   -6.24400560897793
H          -8.74809478797816  -16.92744036165697   -6.44977991343211
H         -11.49623574172046  -13.58688203389285   -3.91883405066557
H         -10.82135788704720  -18.71112030576680   -5.84890794787224
