94
 SCF done       -192.089253691791          0.000986760721
C          -1.16929222173672    3.07000573691416   -3.54907014623866
C          -0.06681984315931    2.60752025374417   -2.88366613951046
C           1.21201025586955    2.48058722048502   -3.46817961328565
N           2.27134928545883    2.36089001727524   -3.89204340493919
C          -0.06706683595132    2.16800988655041   -1.54188559519778
N          -0.00552254006633    1.78335799532074   -0.46238211459238
C          -1.23212960727335    3.44833783522476   -4.95164700147581
C          -2.58217138387095    3.71143716853021   -5.29520670829840
C          -2.96814326955909    4.08534839221674   -6.56061105977664
C          -1.97347646732689    4.20453364206804   -7.53536740450934
C          -0.62470045718843    3.94543970942730   -7.18312062648546
C          -0.23566932650523    3.56859820335227   -5.90417847180333
S           0.43979647616315    4.15791003120700   -8.53766334757457
C          -0.91872420161691    4.58162191818872   -9.54634648147206
C          -2.11080556877506    4.56687003581691   -8.90225358939436
Br         -0.63389887257437    5.00578515721412  -11.34882680751888
C          -3.44710253334143    3.51349050968406   -4.12219813355313
O          -4.64466835026708    3.66883851815316   -4.07448687749215
C          -2.51491948602838    3.17608365112172   -2.99835094036641
C          -2.84005028554082    3.20494814291368   -1.68375649754967
C          -4.18423792277678    3.22605944608288   -1.16857734992713
C          -5.19789262193949    2.50954856808894   -1.71009138889406
C          -6.54710603423485    2.51070782741081   -1.24995699960973
C          -7.49217096376536    1.72332434591977   -1.89695102529591
C          -8.83801751797250    1.70317104143238   -1.49718362938261
N          -9.93358340613115    1.68162524749091   -1.15182356794492
C          -7.15836430516407    0.89730372762101   -2.98242986009182
N          -6.87857300545455    0.20851600661181   -3.85820826494550
C          -6.92370266005237    3.30931031906631   -0.13033408690941
C          -6.08557593946958    4.07651406295997    0.61024448493056
S          -4.36937323569776    4.21433220830291    0.27193965665008
C          -6.54424982935131    4.83366963862781    1.75710442430559
C          -7.80227447394430    5.36829138670576    1.82485602180600
C          -8.30884532999214    6.05876606012412    2.92884547524598
C          -7.51634230554411    6.22167796183055    4.15206157528458
C          -6.23578598769024    5.80765724944525    4.28291213577037
S          -5.36627259853009    4.99963221849985    3.04834450161829
C          -8.37292474959376    6.89345691351447    5.06387397207601
C          -9.61017143138053    7.14528421408565    4.46154938960670
C         -10.47851693595896    7.84316665669950    5.33072662981362
C          -9.89762908358726    8.08431243241188    6.53569096328838
S          -8.28052378402499    7.48917865568002    6.67168410794645
C          -9.57670403961991    6.63558237233218    3.11398355021538
C         -10.57524025254700    6.72027990518093    2.11111320667855
C         -11.87581563671798    7.04290870819802    2.30340048774861
C         -12.83558035444888    7.17631236377609    1.24834107085675
C         -12.53011762584451    7.39020147425235   -0.05883725052146
C         -13.46067973941430    7.54536234044366   -1.12241012306704
C         -13.00697639231574    7.83664333650415   -2.40551800997577
C         -13.88040526640654    8.01554482906606   -3.48881654502292
N         -14.59473943164913    8.17671313857841   -4.37453017814994
C         -11.64093880524942    7.99056294300922   -2.68690414350624
N         -10.51917663349168    8.11576787434970   -2.90458333117544
C         -14.85948089932681    7.38116463845376   -0.88682961694559
C         -15.41683433406605    7.09744308217683    0.31415162788253
S         -14.49857900831503    7.08059271342713    1.81001941381575
C         -16.82837213827018    6.82869367738733    0.43899897234015
C         -17.44218363326422    5.93877731069553    1.24692794606410
C         -16.93975796516308    4.87805893079953    2.10690495135789
C         -15.79803815307827    4.14991181580860    1.91249876998018
C         -15.37663796585413    3.10718968916415    2.76469386620409
N         -14.97891188612958    2.27410889487450    3.44573279620682
C         -14.95073191612711    4.30426668533020    0.79382479148795
N         -14.26929715812109    4.36833876137898   -0.12700517804426
C         -17.99272295601055    4.56883039784295    3.06448825993090
C         -19.18542024760578    5.22656412106285    2.66539276129327
C         -18.91976474845355    6.04212787623165    1.46737009345688
O         -19.69694530997216    6.69962013047673    0.82019284374482
C         -20.37102172267171    5.07974206862112    3.34541002713064
C         -20.37818232637080    4.25557613972257    4.47501307316752
C         -19.17841718343755    3.61543475081187    4.87372936955298
C         -17.98153700003047    3.75699439882015    4.18351953211850
S         -19.41180042187166    2.65167248648938    6.29883206407380
C         -21.09456945819369    3.10863701926766    6.33833192180440
C         -21.46410931328880    3.94305073743409    5.33717685463227
Br        -22.20083984559124    2.44410982459011    7.69763216548565
H          -4.00536190893360    4.27386531074245   -6.78878870927145
H           0.80310131339275    3.38778078058213   -5.68337380668993
H          -3.04922923236715    4.80163602581876   -9.37037744972225
H          -2.05501424167848    3.26698233576601   -0.93969021958344
H          -4.97327290638380    1.86331605048272   -2.54683187100297
H          -7.96113966015515    3.25326796742112    0.17144827048562
H          -8.43745164901461    5.25285496994190    0.95813378880746
H          -5.66490037929815    5.95882640635050    5.18548991664119
H         -11.47490444442748    8.16688210677032    5.09349030358825
H         -10.32658414769675    8.59046254031469    7.37841378113215
H         -10.24663681452760    6.48685907516039    1.10759763432360
H         -12.25845312098017    7.16315086574068    3.30612573485965
H         -11.48491141798761    7.47344801467863   -0.32264044451452
H         -15.51165345370808    7.41133245244225   -1.75050336737609
H         -17.48626986333869    7.43850460718507   -0.17306578022880
H         -21.26565299518197    5.58290090610152    3.01390223655360
H         -17.09178321965884    3.25435255781032    4.52496595089181
H         -22.46127273094370    4.32300137495238    5.21029178534133
