94
 SCF done       -184.916491541556          0.000918298305
C          -3.17487089780142    2.70367310109303    2.64925018917065
C          -3.83395564968069    3.42640753669866    3.60926268349198
C          -3.18846988271996    4.24860392480429    4.55480663019688
N          -2.71281304096733    4.91445773745926    5.36043843227003
C          -5.23693144609951    3.49139269316049    3.75499579646555
N          -6.36398143498630    3.64476046222582    3.91046472577951
C          -1.74274374462823    2.74588891510704    2.37856726418030
C          -1.47438947211765    1.94582272565445    1.24020795956109
C          -0.20513116819049    1.75775621304970    0.75179927770945
C           0.85047032106486    2.39252365989389    1.41511885516095
C           0.57144377979687    3.20003312235433    2.54293213513912
C          -0.71297168728520    3.38966097108255    3.03793598780309
S           2.02147945931240    3.87498202000647    3.22029346080287
C           2.96973819016261    3.06461270654003    2.00497321187912
C           2.24107907595509    2.33435125052377    1.12837680025079
Br          4.83242407045208    3.26051613853100    2.00474315290780
C          -2.73259696227565    1.34367665673682    0.75926140092040
O          -2.84989753672057    0.54106324821424   -0.14963789936561
C          -3.77961313562888    1.81307563925143    1.67951944698590
C          -5.05272331828985    1.30888698724729    1.75158413837196
C          -5.73247591888002    0.54543318164333    0.78829131213453
C          -5.67282963979327    0.48726100504468   -0.59847151274443
S          -4.71694000439068    1.31645658434764   -1.76200380252221
C          -5.59638564283758    0.53847060916974   -3.06617424025437
C          -5.22265411081146    0.84268739983277   -4.46974106438118
C          -6.55452489062352   -0.31358267050653   -2.62681052617913
C          -6.64189139022278   -0.35546756696326   -1.20902194906592
C          -7.43532406757007   -1.01719922340392   -0.27304255375987
S          -7.02714547037305   -0.49588300526117    1.34356560051577
C          -8.44236886397512   -2.00448038370226   -0.44550650258265
C          -8.89648292082134   -2.74898393228823    0.62352466697469
C          -9.86110814605391   -3.74278170316487    0.55989366185912
C         -10.55425174439700   -4.06056527198224   -0.68835291241001
C         -10.27673951796972   -3.45963006970376   -1.86707175595851
S          -9.07925604609961   -2.24484060257162   -2.06484357890945
C         -11.48180971627507   -5.08458504387945   -0.34875334671756
C         -11.37079628728553   -5.40561493202206    1.00769754040527
C         -12.26894000020875   -6.43069300922790    1.37778330043452
C         -13.01768681017882   -6.84795630740798    0.32302118033071
S         -12.66916351901162   -6.02514035775269   -1.15775794249168
C         -10.34651633091148   -4.57990624528846    1.59475191226902
C          -9.82334168257467   -4.57020785566578    2.89497725564207
C         -10.20103218676901   -5.29582317664978    3.98885093304969
C          -9.51450247462659   -5.17464025434788    5.20900222387051
C          -9.79606633740078   -5.73296440361265    6.44760426178946
S         -11.06104822743431   -6.77620305363516    7.00622533720362
C         -10.38452151796363   -6.75078061821080    8.62398306420740
C         -11.05869125492075   -7.51797995842781    9.69968171871106
C          -9.26458347077657   -5.98900451419855    8.71722105116811
C          -8.90080755467773   -5.39312968938317    7.48483659999302
C          -7.87982036988850   -4.52653146617404    7.06610104352742
S          -8.06707792877061   -4.20306954517598    5.34992111953344
C          -6.79590807816604   -4.06968994241644    7.81346751662692
C          -5.83210144772883   -3.15560761161759    7.44792629728640
C          -5.82497135547938   -2.15623575995696    6.41698099939704
C          -6.91076227298655   -1.43287273889264    5.97379203651650
C          -6.83592754478064   -0.48039648877158    4.94966016362188
N          -6.81247215267477    0.26019781809451    4.06991163647457
C          -8.18853515974584   -1.55195326874967    6.55521607112641
N          -9.22289525699063   -1.59914475079397    7.05189043380554
C          -4.43068618220005   -1.83083990710418    6.13125717787178
C          -3.62127733293891   -2.42070039941317    7.13344258463653
C          -4.48156952730400   -3.21754561830797    8.04354395115202
O          -4.13692636435573   -3.83454805871415    9.02813855451685
C          -2.25880376623906   -2.25678932761198    7.16614389445670
C          -1.66785780542660   -1.49290862792270    6.15154630589958
C          -2.48555948090708   -0.92928762702960    5.14661680090788
C          -3.86681797756508   -1.07859426611216    5.12130269908508
S          -1.54952552073154   -0.04971992830287    3.97475322401560
C          -0.09072725059871   -0.43962425906030    4.84702708380993
C          -0.29087140951274   -1.19050372186071    5.95411918151583
Br          1.55505007299408    0.17469128072925    4.19924119916346
H          -0.02917176145826    1.13257241541071   -0.10945759630793
H          -0.87375587475136    4.00286625788865    3.90893721511402
H           2.66570524136475    1.77020669348694    0.31843137745283
H          -5.60795671536474    1.45345221979700    2.67153781416599
H          -5.31735628378131    1.91026236716256   -4.66657857170670
H          -5.86282820712644    0.29650739754141   -5.15834440723593
H          -4.18512775005904    0.56371808360997   -4.65335643449400
H          -7.18107209572640   -0.88328926413203   -3.28759699415849
H          -8.44063079108690   -2.53039774442329    1.57974654374463
H         -10.78563392133121   -3.71004044577228   -2.78429977116717
H         -12.36839975241092   -6.84603010149774    2.36345587031323
H         -13.77458597499191   -7.60773152337306    0.31698728821141
H          -8.99150523770329   -3.89230091368872    3.04791024171069
H         -11.04398109357657   -5.96964010686705    3.96712013826621
H         -11.13097168604852   -8.57182991282146    9.43084935955050
H         -12.07155539708190   -7.14574621872337    9.85457531792473
H         -10.50356954780913   -7.42627138181128   10.63002390773248
H          -8.71821396944191   -5.85250516392006    9.63256271050435
H          -6.62036960887885   -4.57851768212505    8.75555935492304
H          -1.66293293356573   -2.70403428157252    7.94619612190681
H          -4.45026466385815   -0.63687708447307    4.33038515975148
H           0.49723236308730   -1.52142003494580    6.60582179655888
