98
 SCF done       -215.191786845436          0.000402258021
C          -5.49677214308697    9.69882065264906    3.86811800142196
C          -5.37146411091894   10.88002620577715    3.18757207068819
C          -4.97854382125514   12.09575209423728    3.78956419759561
N          -4.66958999954547   13.11445152352250    4.21746894011706
C          -5.67068037805271   11.07784447536005    1.82192187701428
N          -5.91486803447241   11.32763722473654    0.72821140336109
C          -5.31169703978089    9.52440822446444    5.29871758454109
C          -5.77524495019293    8.23494348491462    5.66109883058889
C          -5.76924838593035    7.78609761984542    6.96107731434294
C          -5.23324860360832    8.62564852977135    7.94020091099259
C          -4.73183570446485    9.89670383804079    7.55976555145067
C          -4.78119417798242   10.36998506726942    6.25590254808807
S          -4.02278169542585   10.73152415530904    8.90181210501527
C          -4.39818293925909    9.38597364972823    9.94288224847887
C          -5.04211484538699    8.36858908111660    9.32327780636206
Br         -3.90256721079316    9.43987365596587   11.74475871695425
C          -6.20267394356088    7.50476054168185    4.46028448445111
O          -6.62010349804420    6.36415490924394    4.42946686663049
C          -5.94565818670714    8.42287787799238    3.31625284374161
C          -5.94409704971743    8.13675222660441    1.98512220704771
C          -6.37799199871889    6.97498892876505    1.29178265917258
C          -7.18687490608654    5.93915629241390    1.68078339528575
C          -7.38347153800559    4.97005232211148    0.67340050811800
C          -8.12847076543715    3.77269178245367    0.70682876571460
C          -8.14600956614370    3.01712782712368   -0.47627340633156
C          -7.46113515843646    3.52280199404315   -1.61475798142751
N          -6.77466709178448    4.64192430825987   -1.65907269949787
C          -6.72965600921741    5.33281793431993   -0.53914705114139
S          -5.86659249048585    6.81926563680063   -0.39196460606453
S          -7.58034039695677    2.47914088265192   -3.00225556015350
C          -8.48510366509270    1.33782908559704   -2.04769853888950
C          -8.70049847373125    1.73333989428868   -0.76905255336999
F          -9.32434640367462    0.95944295816204    0.13152909210580
F          -8.88380687266726    0.19513633332052   -2.59072871328659
C          -8.83029225652917    3.38922914883488    1.92428077358985
C          -8.21862074174948    3.42981654269287    3.14700019111359
C          -8.84665318108464    3.11339392674061    4.35422471166747
C         -10.24701311290666    2.68903035501651    4.39030914146075
C         -11.04070068431081    2.60052333917874    3.29781053999478
S         -10.51909171023391    2.97343578908392    1.71414599020381
C         -10.52692167976158    2.44039025184279    5.76040684347124
C          -9.39750639112878    2.71402415840600    6.53823476513838
C          -9.64051445077663    2.46081130605801    7.90764486850686
C         -10.90957718893816    2.02481829579040    8.12325697563233
S         -11.86560882767425    1.89788810870459    6.68870716705170
C          -8.33390670048047    3.14903365933802    5.66541114069678
C          -7.03560750232976    3.59555270450934    5.99946934879216
C          -6.58160256461319    3.84240875180593    7.25577886306744
C          -5.28897184299981    4.34311147881176    7.55597671335421
C          -4.20364259017335    4.54871398743197    6.73716395019069
C          -3.08428548510230    5.08212723285209    7.40353522586960
C          -1.80748850993474    5.42432251155347    6.90512845278461
C          -0.88881458848230    5.93162340835877    7.84787968898675
C          -1.33774861685196    6.17394729877242    9.16987288837129
N          -2.53710941660375    5.89357312039763    9.63263979520798
C          -3.36034478246177    5.33516694664078    8.77754946972266
S          -4.95449381633691    4.82968449252160    9.21583134916534
S          -0.11476585158908    6.87829879586874   10.19180052978399
C           1.02073212923070    6.75829603051025    8.88538713743651
C           0.49617947462116    6.24835227337440    7.74026742722982
F           1.24889547646322    6.00870452369437    6.65160609815360
F           2.27996229949314    7.13809851254957    9.06061718823141
C          -1.52242695854257    5.21457157542970    5.51248756553797
C          -0.77292727756061    5.93115687369751    4.64232813054341
C          -0.10219494564141    7.21470307663898    4.71882980068967
C          -0.46209294561801    8.27963836979628    5.50232940319893
C           0.19330287924060    9.52912554455785    5.49287105623742
N           0.69280863476476   10.56099202753915    5.53373063947042
C          -1.57946039905207    8.27672478955008    6.35286178287838
N          -2.50000153590715    8.33550671183710    7.03739947206532
C           0.90976203988725    7.23430741706358    3.67281828874275
C           0.71671698514758    6.11370207922619    2.82392656494356
C          -0.40588976809096    5.30789851782352    3.33363714302161
O          -0.91883087092869    4.33234270188863    2.83791072438702
C           1.51279001573908    5.87365250270838    1.73006524347042
C           2.55319827899010    6.77217766758785    1.47046065186068
C           2.74556951605984    7.87956743414756    2.33335098990758
C           1.93511353426025    8.12922899180231    3.43347698638349
S           4.09556337263720    8.85061154965891    1.83597555279409
C           4.37909940199197    7.77639236970052    0.49227030310284
C           3.50831678360529    6.74082216410330    0.41886297351162
Br          5.79524869568237    8.12155276648840   -0.68507457911529
H          -6.15367195815517    6.80896732221473    7.20690706815015
H          -4.38777427214596   11.34389515367737    6.01623100329040
H          -5.34869921429618    7.46760736145483    9.82177463940324
H          -5.52265212483833    8.88716221035374    1.32638981019854
H          -7.63273522355013    5.89120958784531    2.65582851867409
H          -7.16994975786900    3.68949851600072    3.16564250639960
H         -12.07453191858681    2.29800568947439    3.35382248271860
H          -8.92912138832593    2.57369866161741    8.70455163705372
H         -11.35903631856811    1.75999082955378    9.06033738325526
H          -6.37968885457461    3.80736037852108    5.16835259468707
H          -7.23647941477316    3.70625524114837    8.10210724678884
H          -4.21751894180451    4.31775100828202    5.68834857065103
H          -1.96895097190557    4.32211457332330    5.08238266360161
H           1.34304105168231    5.01723566150525    1.09660582227296
H           2.12395183800937    8.97795365320949    4.06985106963735
H           3.53843720155739    5.98508085150106   -0.34458876391781
