120
 SCF done       -230.959167820835          0.000434636173
C          -4.93876504332115    1.29316948482122   -6.76152525578080
C          -4.50147811450855    2.00234191555435   -7.85100538950077
C          -3.63491428258822    1.48159355163503   -8.83602349633028
N          -2.93667829733984    1.12530830741127   -9.67476792097124
C          -4.81180495075592    3.34230831517590   -8.16747768874878
N          -4.99331057047575    4.42358301586320   -8.51080029621962
C          -4.54736744629830   -0.07766435187017   -6.45344686774023
C          -5.12480347960311   -0.44496113449910   -5.21555485460808
C          -4.93970699194505   -1.68022549767163   -4.64394843202592
C          -4.14526706905041   -2.60338607391673   -5.33086316317503
C          -3.57415602463261   -2.23055210006568   -6.57104012041312
C          -3.76085954498181   -0.98008779326301   -7.14660491625777
S          -2.63306803415472   -3.52169071226157   -7.25464904070905
C          -3.01332355384407   -4.52954466713833   -5.88350324176843
C          -3.80434488331291   -3.93293678961330   -4.96036990800585
Br         -2.33233562518519   -6.27499427484870   -5.80118534442478
C          -5.92226237003232    0.67847632608214   -4.68689772105384
O          -6.53596504555629    0.66824992910512   -3.64053281390313
C          -5.82047913367791    1.75617899394582   -5.69875350393231
C          -6.46798022285093    2.96082774979563   -5.72817578034895
C          -7.32476762079709    3.59035667041930   -4.80012223143394
C          -7.72389822429267    3.27890575742489   -3.52271040837747
C          -8.58508587172105    4.22724208388304   -2.94475518957593
C          -8.88449847433104    5.30690816768279   -3.82456324278416
S          -8.03307342515173    5.11595771910124   -5.32802758353996
C          -9.73289414645071    6.33551965110301   -3.45197414419236
S         -10.16227295522798    7.73690982146961   -4.43767948407777
C         -10.29054050644318    7.08638057872547   -6.12985951765343
C         -10.24496664835023    6.30163480518576   -2.14153623903724
C          -9.91953496053830    5.24416287854800   -1.25052652009330
C          -9.11291826837969    4.18651781843248   -1.63408788059392
S          -8.60173090816174    2.83348947375731   -0.63348097144667
C          -9.98627944176577    2.52815197489162    0.50327235282161
S         -10.64351520537872    5.52172108950836    0.31607300376078
C         -11.38039787619359    7.00695864073545   -0.23614064927322
C         -11.08017900432729    7.27055329124729   -1.54020271749874
C         -12.17947079486079    7.77330329976555    0.65859209893971
C         -12.43121767392539    7.52678277558290    1.97557677680411
C         -13.25957505690396    8.49461035347219    2.58940686828688
C         -13.66853658625887    9.50416431244314    1.67972091659945
S         -12.97763678798952    9.22715328924418    0.10062185406787
C         -14.48848828129298   10.54976768253497    2.06952133766011
S         -15.04653385177384   11.85959569757396    1.02423851388783
C         -15.45318984751566   11.02716312154120   -0.54116425130141
C         -14.85141477503020   10.60938359677339    3.42692413860447
C         -14.41661767960918    9.61544472667376    4.34252218576331
C         -13.64823621119016    8.53595147387876    3.93966465255742
S         -13.04043327841352    7.25219223247797    4.98929013347178
C         -14.40606326296456    6.93733936896598    6.14779593598859
S         -14.96266236575918    9.98975321558296    5.95555485294854
C         -15.77333384064853   11.43494575840145    5.39806263875955
C         -15.62470968499475   11.61417140589035    4.05312187528395
C         -16.47668731870212   12.26250451051267    6.32184046315466
C         -17.20990681208147   13.38315516033073    6.05187952794143
C         -17.77559267292194   13.98092456517901    7.20065349421875
C         -17.45242313447902   13.26760781663153    8.38504136567828
S         -16.45882341594871   11.88500339600218    8.03091876866632
C         -17.89021148449831   13.67441313612686    9.62935200339801
S         -17.52737599701890   12.79446102828367   11.12541396600002
C         -18.35787328037459   11.21039583710898   10.78679163447243
C         -18.64127965578378   14.85774594942547    9.69328500318582
C         -18.96942486149673   15.57687024675868    8.51078748751148
C         -18.56739195076248   15.14198955424692    7.25805404035121
S         -18.91169179984863   15.96125414009098    5.73282576470522
C         -20.63555226169571   16.51287491962580    5.91533916885732
S         -19.88792577017009   17.00237353216686    8.90297455413141
C         -19.89125257511140   16.59655408930726   10.60777036167786
C         -19.17452668787744   15.45391660189382   10.85104866767854
C         -20.54835508089083   17.46173678609091   11.51541307081116
C         -20.96301944166546   17.21997192885909   12.78778557112185
C         -21.10182894235287   16.01523578969330   13.57991189528104
C         -21.38333116293989   14.75392810815520   13.12259362728827
C         -21.58753659019654   13.63868524456012   13.96130692328200
N         -21.74413271952009   12.69245634228158   14.59201686884273
C         -21.58740627131916   14.42288997207334   11.76839977651342
N         -21.80232525491619   14.09295327277526   10.68983530581066
C         -21.15216060969228   16.42432130367308   14.98051491635405
C         -21.28754026266369   17.83448725947063   15.04016645643214
C         -21.25988917154760   18.38355121702719   13.67110706430706
O         -21.40180977271301   19.53352218444041   13.32697044964532
C         -21.40482035271353   18.51533752781492   16.22751943869024
C         -21.37498574644339   17.77151861250813   17.41177263465406
C         -21.22273611156536   16.36555300188749   17.34224664407472
C         -21.11291674087877   15.67545259220969   16.14120677007984
S         -21.19854009232475   15.64683984488837   18.92336162979412
C         -21.39623626351431   17.22117197597008   19.64687535039843
C         -21.47395964685498   18.23486032721308   18.75218697083466
Br        -21.47958796334884   17.37733773368394   21.51349959760894
H          -5.39435563525054   -1.92487858983640   -3.69678766881573
H          -3.30474736807911   -0.74947921568342   -8.09436228757662
H          -4.13501004735758   -4.40906442491182   -4.05540982001501
H          -6.31828826736414    3.55502128985722   -6.62218795952679
H          -7.40474552004855    2.38888906935306   -3.01172257245996
H         -10.94272718013159    7.77912048582516   -6.65329594447420
H         -10.73908693134716    6.09932097912748   -6.10422537238688
H          -9.31684065810133    7.06161658550221   -6.60862230518600
H          -9.87155526939900    1.49429649996848    0.81539294615506
H         -10.92498505041534    2.65488781613799   -0.02450835579202
H          -9.93120995403234    3.18337338049845    1.36662170987454
H         -11.43462965856156    8.14140990716902   -2.06194438881888
H         -12.02733296958971    6.68256721044241    2.50543228649418
H         -16.20080623222863   11.65503151522410   -1.01629675187823
H         -15.86794564332402   10.04775947720474   -0.32938599722362
H         -14.57578187786123   10.95026345974446   -1.17533412455344
H         -14.26866186127982    5.91373625549158    6.48310787050165
H         -15.35117723195535    7.03500866092953    5.62491198689691
H         -14.35666091393719    7.61443854283889    6.99466126287487
H         -16.03820678610238   12.44484765353306    3.51227047251064
H         -17.34500820884622   13.78368023898981    5.06452081867940
H         -18.31177698354492   10.64940273949486   11.71435645870097
H         -17.84099783797440   10.67338830919588    9.99812453917574
H         -19.39124653536424   11.40725398364909   10.51785192688236
H         -21.02986396341439   16.56631966701672    4.90502071125150
H         -20.67840454380711   17.49172689461710    6.38240980621702
H         -21.18737741042886   15.77962985604361    6.49331567361405
H         -18.98344286532547   15.06198277660562   11.83392623109085
H         -20.69489215985466   18.48320675569600   11.17637845324798
H         -21.51588543183037   19.58813506414517   16.24278830177947
H         -20.99141622437033   14.60485468429792   16.13756390338233
H         -21.59565077346201   19.26742009389608   19.02409754854553
