102
 SCF done       -214.755535277768          0.000878269222
C          -2.44818772374784   -1.50922866647621   -2.82961997398639
C          -2.82727306543869   -2.79001332423360   -2.52093497949166
C          -2.17235246037909   -3.94368239568890   -3.00082718713502
N          -1.68544641722827   -4.91653137588703   -3.36645753571531
C          -3.89025661726763   -3.13411753506317   -1.65910287088509
N          -4.72453100819278   -3.48743656203237   -0.95364568297264
C          -1.28904575446196   -1.13468838610713   -3.62840762050103
C          -1.14466699207524    0.27333698023678   -3.58282771219749
C          -0.13659775591204    0.93793187661458   -4.23800066255582
C           0.77314696459048    0.17501078451471   -4.97706551284179
C           0.61859661125223   -1.23190302833631   -5.02185138782033
C          -0.39994241095140   -1.90328486458249   -4.35693539520936
S           1.84503979486394   -1.97807607414021   -5.99987434660890
C           2.54043120969267   -0.41316270108629   -6.32945615859166
C           1.88918094162588    0.61690383555749   -5.73837738324392
Br          4.05731896689229   -0.28739902998322   -7.42406240745614
C          -2.22182816609059    0.85799658223400   -2.76175169147267
O          -2.39353760248822    2.03772006544127   -2.54512384916025
C          -3.07250404503871   -0.28790428325635   -2.35224578772263
C          -4.33125768261368   -0.21554541111171   -1.82421679975079
C          -4.99309317366264    0.89941587715788   -1.26995595850318
C          -4.50937258936538    2.08263930993108   -0.72684574012868
C          -5.53158557622880    2.91264858822604   -0.28675215714136
C          -6.81718772739264    2.36603045340272   -0.49700623647497
S          -6.75760689176956    0.81387092412750   -1.18679093195768
C          -7.77943275608668    3.31807085287899   -0.09198753086984
C          -7.11533516434879    4.46244099929981    0.38781611128608
C          -5.67926639974527    4.23136096140830    0.31021446619907
C          -4.68396662383981    5.06112505385468    0.73032730444724
C          -3.31754973557498    4.71327817646602    0.64104448024582
N          -2.20466782802924    4.44290692441829    0.59886299975761
C          -4.94064972991780    6.31650807640540    1.32495422990805
N          -5.12694926414587    7.33472207747533    1.81667867167993
C          -7.98944732889512    5.48019449367965    0.76027283784297
C          -9.31687033673653    5.12639609334919    0.57187662555313
S          -9.47623772692841    3.49504076756279   -0.07028453378202
C         -10.44098976123981    5.97502807651681    0.74917919576031
C         -11.79399913644221    5.77058727492241    0.73835320917066
C         -12.47608113620869    7.05129852247608    0.79258898730244
N         -11.53171378588763    8.03393624209221    0.88774067887661
C         -10.26565789220076    7.45681830577093    0.88655607833714
O          -9.24474004890788    8.09391595445331    0.97502823179589
C         -11.70517330423011    9.45130089341384    1.06430791617574
C         -13.82822675222168    6.84789623829764    0.73002168237501
C         -14.00366918491284    5.35888065514973    0.70778728551776
O         -15.02413667181241    4.71550107263504    0.69868743296609
N         -12.73681170670196    4.78380015730806    0.69427408292708
C         -12.56315225361209    3.35656079164070    0.74923843787434
C         -14.95039535646212    7.70852702864981    0.60656424421270
C         -16.28142181535369    7.32585613627707    0.67639825356612
C         -17.14804084666488    8.38241372937527    0.41077329750309
C         -16.47625284515540    9.58739078497740    0.13125529545884
S         -14.78165781790043    9.41540772049092    0.20698687277741
C         -17.43120299145979   10.58461956548601   -0.17659762623444
C         -18.71496208460448   10.00668425174750   -0.09724592497112
C         -18.57946857620632    8.60942067313136    0.28083128413826
C         -19.59155743339941    7.71085318290206    0.44144888080044
C         -19.37804744220077    6.37045683654090    0.82979077742837
N         -19.22784708109212    5.28443603065373    1.16313508772811
C         -20.93711419963229    8.08356004042857    0.23302657813773
N         -22.02507737153723    8.40266193715839    0.06131722830235
C         -19.72594362711716   10.88991304812058   -0.45039250147437
C         -19.23394949013327   12.13915742358012   -0.80153375306131
S         -17.48270899092670   12.21887192703431   -0.64671530519154
C         -19.94354463381290   13.28785190931987   -1.21479582274652
C         -21.19808049859439   13.37152851289526   -1.73729240517590
C         -22.11451333796909   12.39554019974150   -2.29036258219014
C         -21.78803797398406   11.23123848311837   -2.93673089704331
C         -22.72917270712864   10.39703363801502   -3.57682266716452
N         -23.45064822263913    9.68848905807220   -4.11867646762076
C         -20.46959241089302   10.77783327783341   -3.13406661669788
N         -19.41314940918592   10.38285800515105   -3.34963355090920
C         -23.43999950348710   13.00619066865583   -2.29976767682201
C         -23.30987861426899   14.38597172781166   -1.99883025046816
C         -21.89509462884915   14.68969917829991   -1.71521326560088
O         -21.39551580013022   15.76303750219974   -1.47016574963888
C         -24.38544673734974   15.24076250313456   -1.98160000761037
C         -25.64756210861272   14.70686694078870   -2.26240948803291
C         -25.76875761624578   13.32346392246813   -2.54081839188410
C         -24.68060971504696   12.45967037808561   -2.56580875046701
S         -27.41811365601793   12.87485032168181   -2.84597762372304
C         -27.91648996809019   14.52866770445445   -2.60715915627856
C         -26.90146069081212   15.37481068083837   -2.30965115903298
Br        -29.72819574095081   14.98178005391755   -2.77132195772092
H          -0.05322082338631    2.01185101081653   -4.18068577447101
H          -0.47911847038390   -2.97528872761305   -4.42650159567959
H           2.18158159326723    1.64651941618667   -5.83488914215746
H          -4.93867439495660   -1.11236465358311   -1.86949902774143
H          -3.46226461612403    2.31083968927937   -0.66465013999793
H          -7.70443545264394    6.44640577215219    1.13509404338982
H         -12.38155856494523    9.65596201782469    1.89386700575790
H         -12.08721275164411    9.91815534304517    0.15550570855436
H         -10.72035107175164    9.86291379880374    1.28675006692625
H         -13.55157609993893    2.92477802994724    0.90820255520679
H         -11.90734195993544    3.08090654870835    1.57481878501118
H         -12.15585012967476    2.97206515378379   -0.18685015925776
H         -16.57446396112021    6.31541036752445    0.89689458431908
H         -20.77614157518994   10.66289487706767   -0.42409924852376
H         -19.45472529998470   14.24309380052809   -1.04768086288725
H         -24.25790520985345   16.28865197459174   -1.75998735825958
H         -24.82014754614115   11.41165492243601   -2.77323270659242
H         -27.02994802622484   16.42670537521441   -2.13105784711720
