104
 SCF done       -196.527947295138          0.000466872353
C          -5.39576658421767   -1.71876905158033   -1.26086190493222
C          -4.45805773092239   -2.10838067138520   -0.33925562095774
C          -3.77854197088102   -3.34396668091433   -0.38660087650637
N          -3.18619635354589   -4.32748802672468   -0.37649113419210
C          -4.05963664916515   -1.38759996297098    0.80767707867500
N          -3.68702107440757   -0.90679653400964    1.78253333836129
C          -5.87337846229545   -2.54193718861031   -2.36427754354522
C          -6.96606287431619   -1.88044204819190   -2.97164924398181
C          -7.65215932625777   -2.40386093576334   -4.04040984833865
C          -7.23191746077392   -3.63975897081436   -4.54184334393078
C          -6.13187076166944   -4.29096117653350   -3.93478975460384
C          -5.44350169762944   -3.76355666543750   -2.84911696577795
S          -5.77292156582622   -5.80080314556023   -4.71698010099256
C          -7.08872481744299   -5.54067359599343   -5.83137698492395
C          -7.76319368633036   -4.38384216236407   -5.63071441561361
Br         -7.44696720331628   -6.81982083426406   -7.15571370302604
C          -7.21269597747637   -0.59545243485493   -2.28875062936377
O          -8.12163167543643    0.16566275976002   -2.55919265905524
C          -6.14329268315932   -0.46652376967483   -1.27279831147458
C          -5.73726060246290    0.61879935319710   -0.54471897863475
C          -6.25886973398139    1.93030478459383   -0.35853488426653
C          -5.42622875891365    2.87886049793736    0.30225767046832
O          -4.19356772239692    2.45794797752349    0.66517917748579
C          -3.35781644838819    3.31132927884904    1.41361861193766
C          -5.89026067279549    4.16266040836174    0.51474223002344
C          -7.17115225595654    4.57444512003154    0.12709986569833
C          -7.99658488643386    3.62579780535305   -0.52445971666439
C          -7.53946715459018    2.34452544227209   -0.74504921574414
O          -9.23451607635247    4.05118535059412   -0.88650291737513
C         -10.09294592065517    3.16664481445977   -1.57233759978441
C          -7.61393040300620    5.92940095679805    0.38556531602131
C          -7.02980047506365    6.70418698712670    1.35896341300308
C          -7.33478196751951    8.03416138748913    1.64459604511616
C          -8.30626315900439    8.76442070072359    0.82158144221213
C          -9.02892182505010    8.18785459447211   -0.16531761392487
S          -8.92563190022709    6.53743470168520   -0.60932824540631
C          -8.29066150581798   10.09872980654652    1.30346405559241
C          -7.37970320237317   10.20142223213062    2.35596755955114
C          -7.32325785866421   11.51177273856373    2.88232412085722
C          -8.16955354937117   12.34938497178270    2.22941471728991
S          -9.07024165817242   11.59158031492774    0.95770099400161
C          -6.78490954126491    8.91405049613060    2.59974315780316
C          -5.82869523700743    8.71133856374303    3.62933829180961
C          -5.39137445787191    7.53310149773492    4.13728129216033
C          -4.42813243024789    7.36273531084237    5.18584614877914
C          -4.07404484530506    6.04316814946609    5.58151075695131
O          -4.63410699769278    5.02589925976604    4.86453853769115
C          -4.41633980310074    3.70101008634265    5.29370432885136
C          -3.19963044527719    5.85931201504916    6.62641683474670
C          -2.65919725743524    6.93458945974857    7.35495588737052
C          -2.95593448572665    8.24818376970190    6.91332494391509
C          -3.81871001894050    8.42924756228132    5.84921720951009
O          -2.32516415328407    9.26455503334395    7.55354260076478
C          -2.54411569127822   10.58871556487502    7.12627822386719
C          -1.78864018912546    6.61920295226551    8.43900660059104
C          -1.38172286982822    7.30943908170361    9.54293971093442
C          -1.82357161668719    8.51437118088521   10.19893038170929
C          -3.08043283256221    9.06320290048324   10.14410638857102
C          -3.45555570014202   10.25130864629728   10.79877434239428
N          -3.80883740182794   11.23494124533184   11.27570264511635
C          -4.15882156179409    8.46830703765185    9.46372406689974
N          -5.06982211877258    8.00732074625207    8.93844349524537
C          -0.76458911034264    8.93556325077518   11.11138167181125
C           0.20953060338819    7.90908406354619   11.18192769585196
C          -0.17446415287848    6.81847657445769   10.26239207668964
O           0.38979610797537    5.76010410882808   10.09595328193066
C           1.31387494932519    7.99388074740038   11.99373415098881
C           1.47141082069757    9.15241619002344   12.76283605136481
C           0.50078582027901   10.17739348721202   12.67423916763536
C          -0.62284630642333   10.08714344314169   11.86093793074423
S           0.89709480576566   11.52338196836049   13.69991916090431
C           2.33930697947864   10.69886748218458   14.23081862378775
C           2.51779589905797    9.48044216722319   13.66888452243633
Br          3.47333023431752   11.52759583375047   15.47468996309593
H          -8.48504930354524   -1.87524248443078   -4.47707460992075
H          -4.61003193795037   -4.29807833986835   -2.42557777262393
H          -8.60026142591866   -4.06625155972057   -6.22525244572475
H          -4.80215652117406    0.48479865918778   -0.01430508098306
H          -2.49887387993613    2.70114979089105    1.68788939569264
H          -3.85416674809592    3.66968441835205    2.31943557753183
H          -3.02149698382550    4.16506842379671    0.81683282984606
H          -5.23127765301054    4.88542142534233    0.96423709455181
H          -8.17044093899742    1.62646684666036   -1.23608889851348
H         -10.97872056461690    3.75213691523683   -1.81266242374098
H         -10.37547818819827    2.31972959137797   -0.94084540320143
H          -9.63556686282962    2.79525254879175   -2.49270349948270
H          -6.26318555014207    6.23862616870830    1.95611058083861
H          -9.75916097154324    8.74027430359037   -0.73629420363850
H          -6.69754343567023   11.82526885257421    3.69842518739635
H          -8.33325348554352   13.39311619044681    2.41437890510010
H          -5.45105873434240    9.63330832447554    4.05227653098243
H          -5.81388315100345    6.60811425531085    3.78120869455344
H          -5.01825799049376    3.07381094487910    4.63709832202150
H          -4.74502303471449    3.55760771595871    6.32670801809997
H          -3.36381893561547    3.41530719133336    5.20080689510946
H          -2.93484249659386    4.86585092788673    6.95161102033427
H          -4.06033041406181    9.42870491474999    5.53155181787285
H          -1.92832147184318   11.21101647551228    7.77451512730542
H          -3.59325497472695   10.87812045085952    7.24197121145586
H          -2.23349111135016   10.73114689118069    6.08689732669673
H          -1.30968090756135    5.64558279522969    8.35660676119030
H           2.03475057553999    7.19251793528729   12.03648889512144
H          -1.33526641167909   10.89475477882056   11.82552621433555
H           3.35207280515570    8.83744564177058   13.88238436593599
