100
 SCF done       -224.713838706812          0.000635171373
C           0.85304574876399    4.78929841949906   -2.44506297427318
C           1.34844758766321    6.02387069429863   -2.77613985488835
C           2.62913028293692    6.23838254882033   -3.33080842981696
N           3.65344190428900    6.48618634706247   -3.78530806733568
C           0.69658903072956    7.26342532993405   -2.60034417492534
N           0.25084024186499    8.31573244568695   -2.48391407633967
C           1.58460725816427    3.53549686235130   -2.57282948296576
C           0.79928134864939    2.49342619528032   -2.02411126618199
C           1.21967577867653    1.18592973614420   -1.98373993460719
C           2.47810666845442    0.89021403400234   -2.51678123974822
C           3.25512598566979    1.93670725599384   -3.07092480156474
C           2.82992456174330    3.25841299312291   -3.10783287526531
S           4.77291035893793    1.35177075435712   -3.68045943178255
C           4.35122971815110   -0.26706870645427   -3.18796952126685
C           3.13598822870406   -0.36704476863998   -2.59788728471645
Br          5.55393576646320   -1.67060363458060   -3.50095883361293
C          -0.48099702638450    3.03954825479554   -1.53930037594259
O          -1.36579916233655    2.40352355411225   -1.00904751808874
C          -0.44829994668883    4.48819261764029   -1.86174446969305
C          -1.45316225327171    5.40583912131912   -1.74165919155360
C          -2.75201051952177    5.31563108030112   -1.19777647339630
C          -3.43325320155501    4.31790035680624   -0.51059914271894
C          -4.71710401975258    4.71237554995168   -0.15539946485557
C          -5.02725766932040    6.02459228878196   -0.57298238642755
S          -3.74164423545746    6.77085768525103   -1.38765348761398
C          -6.35557504335674    6.32136264366403   -0.17436479775326
C          -6.88656248550060    5.20474222633324    0.48923722303326
C          -5.87565533376607    4.16094077566814    0.53572938688710
C          -5.99655297620067    2.93394437147234    1.11600455570331
C          -4.95818802237594    1.97644613127426    1.13461030867378
N          -4.13584707621364    1.17974736529437    1.17850855235822
C          -7.18558705853495    2.53786053660290    1.76715317064306
N          -8.14611088681862    2.21811190731662    2.30506843401536
C          -8.21288840929161    5.39884593001929    0.88993903737021
C          -8.66676587312071    6.64982829868627    0.55119684322117
S          -7.46185597415947    7.60950954196575   -0.28015725734047
C          -9.98456735430423    7.21539949457733    0.77309930536430
C         -10.17026164024812    8.40928062037129    1.48678640745620
C          -9.07783322611101    9.10019922879510    2.20684921561335
O          -7.95406583491425    8.72782408411427    2.36362398137129
S          -9.70811284150468   10.62628440504474    2.89722146508041
C         -11.36780016794684   10.33726828345209    2.28320925184280
O         -12.24764033683964   11.13435427204861    2.40725420802317
C         -11.41494396479318    9.02024777544361    1.60998020615507
C         -12.57893462934267    8.44920912013808    1.06864573288187
C         -12.40462743196987    7.20687578573301    0.43015710681867
C         -11.15154507931625    6.62703867478443    0.26052447714016
C         -11.16045578511024    5.39020793368667   -0.55665340522763
O         -10.22682278978151    4.77508700659557   -0.97240781653132
S         -12.85911717343061    4.93745380507181   -0.90413523480457
C         -13.52647549274419    6.37216218367185   -0.06130494085997
O         -14.69733407265636    6.54610529967562    0.08948633622310
C         -13.87276258699263    9.10010163593799    1.08805412302673
C         -14.64647160050565    9.34657223178540   -0.02447735230122
C         -15.82980836704187   10.00799959968425    0.30458388135522
C         -15.95541202562348   10.23810436656024    1.68592002456798
S         -14.61681357089366    9.66611541742509    2.56455991645543
C         -17.17746198782514   10.92587869409631    1.91923175823055
C         -17.81483023909310   11.12393977072803    0.67985844508762
C         -16.98727271414236   10.55926424200373   -0.37389202773924
C         -17.23585191428015   10.58818165600721   -1.71461892813664
C         -16.34566865122268   10.02317457682094   -2.65198470872886
N         -15.61791260307512    9.56288437513508   -3.40866712100547
C         -18.39691763799212   11.19986878164244   -2.23270605477561
N         -19.34550394126413   11.70402698838120   -2.63364529709266
C         -18.99601417904311   11.84681086339116    0.78768015154531
C         -19.26553563534110   12.21459122460810    2.09719729833983
S         -18.04965080770771   11.60634504053304    3.21084166461572
C         -20.35924370627785   12.96270238149577    2.59443783576983
C         -21.17563849902094   13.81405075264425    1.91854978445436
C         -21.10328806386386   14.43716331326283    0.61057461510487
C         -19.97003916696179   14.80222962071024   -0.06747703081338
C         -19.97841160542195   15.53633085150068   -1.27309267456467
N         -19.92944959191813   16.13636658718621   -2.24952533145552
C         -18.66008483805371   14.58050862244723    0.40054802803289
N         -17.57426610087509   14.44973084366909    0.74974086277141
C         -22.45205272462340   14.87434808499476    0.26812938832821
C         -23.27464794123299   14.76541688157825    1.41856912867823
C         -22.49230159823385   14.17872758024416    2.52184954490339
O         -22.83785658002553   13.98182954351908    3.66272357134079
C         -24.59274311348010   15.15431582035000    1.41997945395968
C         -25.12530053447391   15.65965358274632    0.22928082360638
C         -24.30088751303953   15.74111480848117   -0.92002616219397
C         -22.96578602765083   15.35680271391504   -0.92025100643074
S         -25.16578430898941   16.37805177918434   -2.28379634304759
C         -26.60135249723035   16.53326401533765   -1.30619663803014
C         -26.44419658499144   16.12521532446716   -0.02399956238216
Br        -28.17072913291932   17.21677914447307   -2.07001950164907
H           0.59570410784129    0.41795037965485   -1.55428990702556
H           3.45921743524165    4.01588634147903   -3.54356230758945
H           2.71921226334275   -1.28851703234011   -2.23449871249971
H          -1.24300416013422    6.39003417490875   -2.14399839978171
H          -2.99218489334055    3.35926473793600   -0.30141152339318
H          -8.81048109624589    4.67645286150778    1.41513641579273
H         -14.34598696199252    9.08563548429304   -1.02304922258256
H         -19.65404843325423   12.07164278057701   -0.03181400961723
H         -20.62210457263395   12.80348666741599    3.63576512943449
H         -25.19458807778396   15.07221382651977    2.31131420302905
H         -22.37722467931000   15.42671224019399   -1.82001889656922
H         -27.22517781398944   16.15134110652412    0.71372567426741
