150
 SCF done       -278.764380220961          0.000283822980
C          -1.83394500816974    8.53198577887786    8.26805204322529
C          -1.53932943334376    7.19466507985642    8.29927985275277
C          -1.00720296003158    6.53146957720004    9.42691811288949
N          -0.58017112599878    5.92865951463497   10.30541135024615
C          -1.67473857630196    6.27085814200780    7.23929020161600
N          -1.72876128519122    5.43995038847374    6.44791494002445
C          -1.59662037094139    9.45599400169050    9.36892853521216
C          -1.87178571159264   10.76810175854761    8.91977845466290
C          -1.73048590268895   11.87564040067528    9.72089876254489
C          -1.30248525988908   11.67691554038794   11.03664034513487
C          -1.03832090236266   10.35933108608968   11.48272330875242
C          -1.17698224160345    9.24173463099339   10.66989938118694
S          -0.52858118143579   10.33793329562788   13.14374290686925
C          -0.67246475570920   12.07440630466763   13.21428030536383
C          -1.08204696544409   12.64338487996019   12.05560933171229
Br         -0.26973413325145   12.97195988716354   14.81078036443809
C          -2.31581843314913   10.73265778942551    7.51405198923317
O          -2.57734097623555   11.71480623667517    6.85094238496955
C          -2.36740148836451    9.29600659743853    7.13930343515510
C          -2.89466936233921    8.68550400314321    6.03827285329771
C          -3.48557653755687    9.15455934006211    4.82040644016220
C          -4.08532830219593    8.17901992551251    3.99649750140355
C          -4.69569728059575    8.49142597761698    2.80036835345125
C          -4.71628219007703    9.81694911889415    2.37306545064909
C          -4.11802585118487   10.79335822154364    3.20586895713508
C          -3.50308440363956   10.49341800390102    4.39689938972095
N          -4.28428079676265   12.04085336684390    2.64377483987953
C          -3.77824188604094   13.26918225507848    3.19275185147711
C          -5.01981159079617   11.96545547863572    1.49209486784368
O          -5.27346734207750   12.92867124066163    0.79872898253920
C          -5.33063651069501   10.51254674286221    1.26434390931552
C          -6.03589106743704   10.02331483894062    0.19897433371082
C          -5.99456992314835    8.59384950913221   -0.27074088808744
O          -5.33148539597275    7.66511903861003    0.13956944917858
N          -6.81805080837825    8.50686737271137   -1.36063195482193
C          -7.03066148972190    7.29308276928465   -2.09974371921126
C          -7.41577163282540    9.72295750107004   -1.62441647624113
C          -6.93244465483406   10.69222265019319   -0.71421134238624
C          -7.45256726793088   11.98034606254244   -0.78665896837675
C          -8.40591949597686   12.27149185932985   -1.74347948156570
C          -8.87569108111747   11.30923480172591   -2.64118946935990
C          -8.36570515994460   10.00813489809363   -2.57766534637481
C          -9.93040248024184   11.65447847077076   -3.59742863114060
C         -10.95996797946826   10.75268580907862   -3.87087214156439
C         -12.02938231788856   11.08307008393205   -4.68446100110189
C         -12.08961749055175   12.35173274137357   -5.24705372090017
C         -10.99883235672377   13.22557458482054   -5.03557549216659
C          -9.93950329074116   12.90870707636814   -4.21741620884005
N         -11.19121519583156   14.38256095407408   -5.76284342847747
C         -10.28140129024774   15.49316569346478   -5.81764816454027
C         -12.35646997656630   14.32502893302583   -6.48052903196125
O         -12.72618526315444   15.22292265589459   -7.20772678231762
C         -13.03076735810716   13.03054418368977   -6.11581348434437
C         -14.32371470223247   12.71592958523119   -6.42758381814669
C         -15.14135240022318   11.68331583558685   -5.69894227934533
O         -14.81645194801992   10.89001602103287   -4.84049567877742
N         -16.43359041418229   11.82181546002123   -6.12876880710364
C         -17.52248331326299   11.02558605672708   -5.63450031865186
C         -16.52879534296871   12.78940358617112   -7.10742823885692
C         -15.25351002004819   13.35349922629897   -7.33898962918269
C         -15.12899375001376   14.28834577216564   -8.35975050567555
C         -16.25630692752803   14.68456299127649   -9.05905211227445
C         -17.52264714130395   14.17275959039238   -8.77353087857353
C         -17.65410063982624   13.18687319339558   -7.78975543856684
C         -18.71301289007699   14.66890650280636   -9.46880266732250
C         -19.90072446555529   14.86224235913634   -8.75917873628370
C         -21.04188195858377   15.35991316199716   -9.35839702867064
C         -21.01489984629981   15.67767223765405  -10.71188909804105
C         -19.81990465725928   15.44378184091875  -11.43144539273348
C         -18.67681661806967   14.96149619217102  -10.83617324189617
N         -20.02080561719643   15.74839469457117  -12.76327476123708
C         -19.02727897037928   15.66276511550093  -13.79780970217296
C         -21.31364413784322   16.13844340478353  -12.98733206737340
O         -21.72465389204159   16.48884950760992  -14.07350765726918
C         -22.01366904492929   16.12427791552139  -11.65501119650642
C         -23.30510245005260   16.52460631790279  -11.44819826004712
C         -23.86124266149717   16.94626298408343  -10.11949014775552
O         -23.31837445441932   17.03056797597240   -9.03880282434173
N         -25.15809245037870   17.34001127092940  -10.33552202489596
C         -26.03070699345696   17.79730769776065   -9.29002829420869
C         -25.51065232778878   17.16691935418453  -11.65455754860709
C         -24.39391250874916   16.69301475773416  -12.38587899255198
C         -24.55990533538771   16.41110416403896  -13.73674741469886
C         -25.79159526042536   16.62290388099520  -14.32614138459382
C         -26.89443179139622   17.07915333103948  -13.59374724470553
C         -26.73988285194503   17.37313567910052  -12.23014857529706
C         -28.15907776901626   17.26217902629677  -14.25563877404181
C         -29.40540375343923   17.17507667011086  -13.73249012787703
C         -29.89861216253512   16.68481915439769  -12.45732675029218
C         -29.34987123501570   15.68164379227296  -11.70424536850519
C         -29.90696942947076   15.21339483687578  -10.49697243302704
N         -30.30340230352217   14.82342582690315   -9.49266160278642
C         -28.20291213633874   14.94815690720640  -12.07700743808183
N         -27.31811916842548   14.26855505589464  -12.34512368391150
C         -31.21754559006782   17.27108684820712  -12.25069351066697
C         -31.63398089078747   17.89203851916853  -13.45592602892611
C         -30.55814980743938   17.77792434544597  -14.46159815707486
O         -30.57789486262711   18.13883869892926  -15.61439833381026
C         -32.85975801072968   18.49915247426192  -13.58571472023581
C         -33.70777724916559   18.50363314840028  -12.47325724450128
C         -33.27619434676635   17.89326181220784  -11.27058170098209
C         -32.04093109790745   17.27147539646877  -11.14043613827418
S         -34.47538859033533   18.02440543665562  -10.02063873876284
C         -35.52839469766508   18.88106676804914  -11.11536970099429
C         -35.00974206936506   19.06225642596510  -12.35320377411331
Br        -37.21085757336883   19.45575502159954  -10.51920629301409
H          -1.94499557094965   12.86303708472790    9.34305676224218
H          -0.96591450605061    8.26092877670196   11.06089836878581
H          -1.22345658366436   13.70046650934058   11.92323626413782
H          -2.90412051151006    7.60264906873220    6.09287205372698
H          -4.06733588917606    7.14730039628717    4.31533100336542
H          -5.12802144680261    7.71125732815726    2.19899279490276
H          -3.05664334957259   11.26606130686266    4.99621714193349
H          -4.17463939844206   13.43127389885461    4.19659454106546
H          -4.09664588060476   14.07752265313802    2.53571029398835
H          -2.68808528379897   13.24563231745974    3.23992366567851
H          -6.39564588334819    6.52619665195550   -1.65752399208050
H          -6.75772105558228    7.43076879083360   -3.14761421394138
H          -8.07527386796118    6.98076213696108   -2.03647058296539
H          -7.11208807394979   12.74941746358023   -0.11617340080585
H          -8.82333726784151   13.26599861779128   -1.77783019766561
H          -8.70420687660023    9.25318987111771   -3.26951658519369
H         -10.94698435883337    9.78169879209122   -3.40035188899128
H         -12.81181029792137   10.36564217541496   -4.85256364699929
H          -9.12327122473169   13.59796163783472   -4.06905149404372
H         -10.15590600752428   15.93439801840321   -4.82698715543533
H         -10.71077343907508   16.23335349224299   -6.49197108545520
H          -9.30787971789936   15.17577439432712   -6.19722741744778
H         -17.11839296367670   10.35646215611987   -4.87558095124177
H         -17.96657522696942   10.43692895961402   -6.44007512385539
H         -18.28904338335318   11.66112230774960   -5.18701689579899
H         -14.17426341152598   14.72260163695017   -8.59575474788179
H         -16.15638695798582   15.44126100204419   -9.82207287072531
H         -18.61393055145470   12.73708250617785   -7.59088881489450
H         -19.91879270973435   14.64845478776167   -7.70167957147087
H         -21.92984676109779   15.51581744176816   -8.77245899788697
H         -17.78109643787779   14.78223165997709  -11.40975863528318
H         -18.18118792764776   16.31389633734760  -13.57016018290196
H         -19.49438494062825   15.98747208184594  -14.72691686548685
H         -18.67308297657292   14.63564127243939  -13.90822368373521
H         -25.44744077688184   17.82832763245264   -8.37031485543074
H         -26.87222983764628   17.11207524667977   -9.16175270332556
H         -26.40754049337457   18.79709226487918   -9.51418469387914
H         -23.73610920093678   16.05412856360758  -14.32936938719607
H         -25.92249919947604   16.39852487108900  -15.37361541811846
H         -27.56112870628974   17.77688676513343  -11.65810540444416
H         -28.11725309125062   17.56132484144628  -15.29843418312191
H         -33.15600252532465   18.95666433528416  -14.51651694001215
H         -31.75187122449759   16.82374519261805  -10.20388053960053
H         -35.52255193415802   19.56901587110390  -13.15012472863816
