128
 SCF done       -245.370104844629          0.000841646627
C           0.83543221193896    3.89268552102502    0.57758143322031
C           0.93833479606644    2.94746350642186   -0.41075575835840
C           2.15600135935114    2.56087394282341   -1.00833654186308
N           3.11346791171865    2.21271761913474   -1.53732171462787
C          -0.13715856516085    2.20372994723600   -0.94027623595698
N          -0.95585539933430    1.54684466883778   -1.40670404244373
C           1.95312070618499    4.58565536185614    1.20565080432237
C           1.45662818152098    5.35631869645655    2.28427955645050
C           2.26697123022549    6.12693663176390    3.08185330923263
C           3.63656135009916    6.13999756902120    2.79862806696556
C           4.12434180572111    5.37084932146702    1.71486710718100
C           3.30393299823547    4.58946976037844    0.91053842019404
S           5.84423152460630    5.53987197345136    1.53508125861804
C           5.88443306596821    6.62414655439238    2.90019438531504
C           4.67363244861395    6.84990032395758    3.46317077850000
Br          7.51995625534270    7.35824769536176    3.45015264985647
C          -0.00793446587664    5.19749944131896    2.37604506733072
O          -0.73134553383692    5.74123227315779    3.18274156951300
C          -0.38296294347087    4.31856725149764    1.24240043360276
C          -1.64354867663671    4.10199011374224    0.75456469567006
C          -2.88943278633443    4.39978068803883    1.33843790111094
C          -3.26065127350823    4.65510451555856    2.65256392472282
C          -4.62082044425210    4.90061597704672    2.77410599405714
C          -5.31048942512297    4.83887395466265    1.54221790121815
S          -4.28706543225884    4.43134156557238    0.24982442493182
C          -6.66553835219022    5.18205129725984    1.76957868440080
C          -6.83759787956908    5.45230542547863    3.13629054729897
C          -5.56720807065347    5.25832870408080    3.81838401237287
C          -5.32531798163769    5.37453504325588    5.15509000166920
C          -4.06331780018286    5.11465622129832    5.73270898455572
N          -3.05663223680835    4.88611206253343    6.23085145491535
C          -6.33991711952661    5.74040384138172    6.06509413785185
N          -7.16335266804518    6.04170198869437    6.80399069242460
C          -8.13883300864675    5.84881104299801    3.45051462466399
C          -8.95895900406771    5.88905737156876    2.34062349395487
S          -8.10873497417272    5.40505820334519    0.88288152063783
C         -10.33268750029834    6.32029938167582    2.26810841443712
C         -11.07475019253346    6.17132701886497    1.09075723719698
C         -12.36479503152588    6.64159177905167    0.99886060942928
C         -12.96353325297701    7.29118681903533    2.08032566211301
C         -12.22871091091721    7.43200957616286    3.25986877274245
C         -10.94499417695670    6.94780680408513    3.36014831977995
C         -14.29120994490860    7.90334066104316    1.97323405240305
C         -14.39081175229213    9.25621309996010    2.55223116718786
C         -15.44138916330492    9.59873187323703    3.40082007344576
C         -15.51903900135348   10.86793856529200    3.94154727401811
C         -14.55058627491798   11.81302149915173    3.64515326881951
C         -13.49406626582091   11.47736503339136    2.81492146250093
C         -13.40925346904739   10.20660007988499    2.27812709532039
C         -15.35321172447590    7.30042147276696    1.38736431781176
C         -15.35640887354148    5.88525400717201    0.99241312664744
C         -14.81678359697334    4.90261720459561    1.82123642591707
C         -14.84292091927595    3.57468240142558    1.44088860711682
C         -15.40852035134049    3.20562803411012    0.23104455553237
C         -15.95968744582512    4.17268100733689   -0.59331225899236
C         -15.94112267087129    5.50142618560042   -0.21381376766257
C         -16.59475094828890    8.04532814503434    1.13563638225050
C         -16.55927448349962    9.30611308738324    0.53745750374640
C         -17.71186068626404   10.03260013689697    0.34873948582543
C         -18.94967292360212    9.52579359551923    0.76311195815139
C         -18.98759514781547    8.24428761870668    1.32166517144920
C         -17.83374261850172    7.51149429695593    1.49093774444705
C         -20.14576201139480   10.32381578725865    0.64808848257407
C         -20.32374129835152   11.48763203643274   -0.07082071792652
C         -21.59941019875016   12.02913373794499    0.10374776309453
C         -22.40204590102108   11.26849130107342    0.96846395092174
S         -21.58774609411382    9.88448774366521    1.54769634645858
C         -23.65313024519459   11.92006680706558    1.11909229567987
C         -23.63559972203971   13.09420484144171    0.33888573418042
C         -22.34633682984978   13.20049472395550   -0.32216646011119
C         -21.92364284282569   14.21595391009460   -1.12920128562985
C         -20.63701234995383   14.23032065974131   -1.70639025647369
N         -19.59088805072754   14.23335765388531   -2.17572031627167
C         -22.75842014560996   15.31316631400764   -1.42816813879401
N         -23.44824064218079   16.19877354708596   -1.66266552844658
C         -24.79377589029987   13.84719198470287    0.46649793082862
C         -25.70284580704164   13.27044618965790    1.34221918164397
S         -25.10920231195922   11.73755433289898    1.97760987145167
C         -26.97621882492902   13.73728468917579    1.72852580612962
C         -27.48170831846391   14.99958749014899    1.63143357293204
C         -26.88074706813020   16.29422976093340    1.38825209282861
C         -25.61663150712910   16.69766131954123    1.73496096303739
C         -25.14808900741623   18.02105329193054    1.59583444751166
N         -24.71829561449650   19.08134625894848    1.50903882468950
C         -24.66616530782448   15.87131383897320    2.36446087927789
N         -23.86908274243473   15.24958660155138    2.90940993400703
C         -27.95127396366064   17.19459599699852    0.97117008456488
C         -29.19714322733818   16.55515059082398    1.19274607119029
C         -28.95803983172498   15.18711916569811    1.69190362409961
O         -29.77622236165302   14.36542234150435    2.03588565703014
C         -30.39724947759649   17.17372078703352    0.93880698543602
C         -30.36486084557849   18.47644199620990    0.42961630029164
C         -29.11452139858130   19.09654918941124    0.19095926581986
C         -27.90018891640777   18.47547244168952    0.45672183385101
S         -29.30721685576554   20.69724473193820   -0.45434597965204
C         -31.04049470564232   20.51848289524096   -0.39022438380619
C         -31.45601165713260   19.32109021551470    0.08702140799096
Br        -32.13745530427838   21.92864606132052   -0.95926943723298
H           1.85643283185935    6.70024262846074    3.89814596824065
H           3.72279967606466    4.02617870477582    0.09356912177084
H           4.51585818363398    7.49101317684170    4.31114257167512
H          -1.71611195137292    3.68055752356133   -0.24166006112886
H          -2.55890085508925    4.66345937489295    3.46514857281268
H          -8.46850255667125    6.09518412668886    4.44242998475986
H         -10.62073508801711    5.68797797793096    0.23713523691317
H         -12.91173589995595    6.53292091533958    0.07439844370135
H         -12.67974731558536    7.92955904932834    4.10609046223358
H         -10.40247234342041    7.07934820613496    4.28265808532146
H         -16.19047005890131    8.85988323394988    3.64555527247960
H         -16.33741143005009   11.12037833253475    4.59952036160936
H         -14.61602890754379   12.80570253604468    4.06447684654540
H         -12.73292156479660   12.20839181364195    2.58534608094268
H         -12.58661772920100    9.94701232482123    1.62651602084626
H         -14.39054788759624    5.18424895764278    2.77294192734794
H         -14.42436944067884    2.82264002159026    2.09342249179990
H         -15.42547267771028    2.16743441876122   -0.06498006699260
H         -16.40726600252774    3.88992549225519   -1.53479704524727
H         -16.36788448970152    6.25593321269960   -0.85966492002196
H         -15.61213973569850    9.71605334788925    0.22088883094843
H         -17.65183565541765   11.01191222036465   -0.09850163153881
H         -19.93716381506739    7.82801968540163    1.62753574252488
H         -17.87999333409883    6.52612947110871    1.93177794231452
H         -19.56759077109583   11.91979758450769   -0.69941159982949
H         -24.99745171913005   14.75324772536823   -0.07448199880914
H         -27.67455481104562   12.99211544779660    2.09705418121700
H         -31.33224762404265   16.66944122919839    1.12581710458749
H         -26.97122910196441   18.98117080201283    0.25128790371833
H         -32.48862312348276   19.04322376267378    0.19387515974317
