102
 SCF done       -205.890670746357          0.000597095700
C          -1.23878314693142    1.05690754365344   -2.66880621239722
C          -1.04398829369520    1.54470791789233   -3.93769088621326
C          -0.20452848574786    0.93965577531501   -4.89653114761321
N           0.45567278168126    0.50238402185339   -5.72798992444729
C          -1.61542318732793    2.70991470762630   -4.48981801093361
N          -2.01961427042210    3.64279692235925   -5.02596688902464
C          -0.58264629723118   -0.12963940297582   -2.12883760493935
C          -0.97510701935650   -0.28738097795443   -0.77914097477201
C          -0.52307725853479   -1.31295613237165    0.01448791307497
C           0.36237320074531   -2.23402096483458   -0.55447436428681
C           0.74783615765293   -2.07234121069280   -1.90627195653265
C           0.29046962325485   -1.03281254076512   -2.70682058836290
S           1.84389815592417   -3.32267342134563   -2.41190979216910
C           1.77050010832405   -4.03463891296264   -0.82181112158197
C           0.96793550686702   -3.37242110620197    0.04463751585793
Br          2.76019428234854   -5.58541191877337   -0.45681884500634
C          -1.91128604057620    0.79120296824312   -0.40801056205287
O          -2.43471893728169    0.92146682521362    0.67952074322915
C          -2.07773404035857    1.61703695387316   -1.62358290584959
C          -2.90822071066310    2.69386376583425   -1.81304883588825
C          -3.74684138723244    3.39595249879031   -0.93390236396005
C          -3.97576333539010    3.31528585826954    0.43632791956499
C          -4.89320959938438    4.25570601123595    0.87532509414206
C          -5.39221373743167    5.08269158221338   -0.16975790122623
S          -4.71206580993578    4.69255096289171   -1.67854556140148
C          -6.31211977255199    5.98953449476316    0.37539696394480
C          -6.40866228371847    5.75723033523747    1.76839915903816
C          -5.51122065945201    4.66136274969799    2.11935868517707
C          -5.29869641008316    4.14486513579399    3.36490166877903
C          -4.40182504136043    3.08695624566429    3.63180377536858
N          -3.68792168230762    2.23545365469978    3.91405623330551
C          -5.95004326948210    4.62462792473249    4.51800008443520
N          -6.45471802183184    4.98012775843677    5.48565101838964
C          -7.29405051076765    6.60406013723685    2.40728389507810
C          -7.89775347288713    7.50787162778994    1.52386469946518
S          -7.33046090214306    7.26913389841668   -0.13190888875407
C          -8.82647514947307    8.52523001118221    1.75848185784624
C          -9.39719843933206    8.90074881659990    2.95732841541146
C         -10.30759015190390    9.97155308558250    3.12332799157624
C         -10.71593568950375   10.16950379579648    4.41135215676318
C         -10.15549780950698    9.26065324758901    5.32885559166898
S          -9.09620632843076    8.14236067208204    4.50495191360940
C         -10.31985345658272    9.17159942340687    6.70299592563538
C         -11.05919126643373   10.01073817873219    7.56138301827961
C         -10.96080902853008    9.65473446449870    8.87641289509521
C         -10.14804137210746    8.52142241609652    9.10406185134142
S          -9.51993600535982    7.89977816881630    7.60166569330345
C          -9.81409594784570    7.93545797918722   10.30903377236617
C          -8.98213702262798    6.81824067379879   10.32258638326370
S          -8.37590683505504    6.03344314039351   11.80825431744621
C          -7.51914692830457    4.94048684848405   10.79808338174770
C          -7.75849269698667    5.23442917346025    9.43858344469465
N          -8.55098145051806    6.25786709117393    9.20971605283465
C          -7.03123784206342    4.28727180604529    8.54833917637252
C          -6.32598862728814    3.43217909265803    9.55464843923137
C          -6.64113568695200    3.84645694394150   10.86362980523340
S          -5.85126576401516    2.90972569671268   12.06081355946973
C          -5.08562334373820    1.94205013340544   10.80900145901343
C          -5.45555994303786    2.36134518339431    9.53107770939687
C          -4.19330174344092    0.90186548220913   11.12217121246720
C          -3.80019617551558    0.57194094175745   12.38590322987896
C          -2.87838299777249   -0.45437553335857   12.65347678984974
C          -2.29886428586474   -0.75495660917687   13.85594636298057
C          -2.25880572205050   -0.03394186687715   15.10548152772213
C          -2.31962716324150    1.32744541711817   15.27454302408883
C          -2.22617185252555    1.96666542416662   16.52707644313375
N          -2.17738127506877    2.53782173162071   17.52215332455350
C          -2.36194740587160    2.26369412813150   14.22084243579757
N          -2.33984445376379    3.07760595556483   13.41121542019200
C          -1.89844364437524   -0.99283288612697   16.14767767537742
C          -1.51203324249589   -2.20936277307085   15.53078278678656
C          -1.68111722081891   -2.08654116202444   14.06732491593859
O          -1.41780745742303   -2.91060464200172   13.22008230675508
C          -1.07470893970988   -3.29449871043964   16.24969429469370
C          -1.02588265143297   -3.17807696925926   17.64321811910750
C          -1.42805080037151   -1.96486417666655   18.24965001583148
C          -1.86363648548873   -0.86348270499444   17.52236210792742
S          -1.29894134186824   -2.04183623091504   19.98075795456187
C          -0.70895760896720   -3.67882423403253   19.86744667669658
C          -0.61513184553039   -4.14642405604203   18.60032826119804
Br         -0.27429181502882   -4.61555271603007   21.43332181753362
H          -0.84282759657493   -1.39963473130989    1.04105242437810
H           0.61506581117911   -0.95816373385675   -3.73079192756621
H           0.80775624481114   -3.67238445534388    1.06410833576213
H          -2.93994851913567    3.08785852819727   -2.82190020184629
H          -3.48344302797556    2.58654974267419    1.05570058612175
H          -7.50290149395587    6.58432932897404    3.46015552681077
H          -9.12942174995971    9.09913219537501    0.89178035147497
H         -10.62844564229845   10.56748118685292    2.28723712417694
H         -11.40095600793857   10.93940757855385    4.71763520534822
H         -11.62667552971203   10.85120466768988    7.20310958271954
H         -11.44130588238707   10.17474504363233    9.68643256704432
H         -10.17833119011318    8.34683032196504   11.23671325065314
H          -6.35193370514112    4.80476938940666    7.86870172269188
H          -7.72031592788551    3.71667177901362    7.92300530334611
H          -5.08039093446405    1.89087624410173    8.64009196768421
H          -3.76797684961433    0.36966895792057   10.28068388998519
H          -4.22460180979567    1.11977909047548   13.21598053675550
H          -2.64063644374203   -1.13638725588525   11.84374671057769
H          -0.77780098449205   -4.20533293762238   15.75383375438963
H          -2.16473162629064    0.03855303866695   18.02877693560423
H          -0.27108045162835   -5.13290551702257   18.34835480616147
