121
 SCF done       -254.280506285085          0.000914532609
C          -1.78094499480419    6.02620909610405   11.04117159744545
C          -1.65101132227827    4.70243287113716   11.37397793456479
C          -0.60807316399472    4.18916704034643   12.17343210028441
N           0.21665702213671    3.71332933345047   12.81450402477264
C          -2.55317926906731    3.68035355045422   11.01021848862209
N          -3.25376843587666    2.80160393336327   10.77344201256867
C          -0.92429204567678    7.10604047450747   11.51256365715359
C          -1.48592202579368    8.33947924999703   11.10231460019631
C          -0.91320172337215    9.55185203059979   11.40138734423615
C           0.27499091197180    9.54631017236307   12.13916780628388
C           0.83319855916153    8.30819747266620   12.54002534711283
C           0.25153402178187    7.08273579892687   12.23969368527371
S           2.30625221877544    8.53099944954261   13.43335795404277
C           2.15455703014860   10.25962268294774   13.26030038742622
C           1.05761620469448   10.65218438929614   12.56956305134065
Br          3.45897047179525   11.38133354343224   14.00572788553654
C          -2.71922319658132    8.09221666067886   10.33094967232441
O          -3.42702740784419    8.93863132460542    9.82937448821196
C          -2.84461139142617    6.61614419659569   10.24668753872173
C          -3.67421991810816    5.90482464998711    9.42426116937556
C          -4.79847939251539    6.33212228713616    8.69009196592026
C          -5.60274489464467    7.46009725987025    8.79610994392043
C          -6.65871815895030    7.43614943998206    7.89532088990998
C          -6.66422651016170    6.28393544169653    7.07643595510841
S          -5.39237564900347    5.22129665586369    7.44608464642203
C          -7.75915238124599    6.37147679886406    6.18517409093648
C          -8.45761310953545    7.56413109621998    6.44388899752813
C          -7.79308397202276    8.26905262683548    7.53160466032721
C          -8.17381868670097    9.45052854785735    8.09466612877100
C          -7.49107950508490   10.04031491118096    9.18128806353434
N          -6.97022105462391   10.53264627198778   10.07540703251184
C          -9.30419559085431   10.16076491387915    7.63589233229221
N         -10.22218811876115   10.73515618727624    7.25897315036008
C          -9.56622976022261    7.73311540190076    5.61665088709399
C          -9.70964269378113    6.68436403180776    4.72448530619003
S          -8.45931444164648    5.46639547904414    4.91507067111698
C         -10.71508155173258    6.51882999792469    3.73878890309024
C         -10.79574069687939    5.52614530611562    2.77918129569599
C         -11.92423526248022    5.67083397783794    1.97383352001995
C         -12.71414170733537    6.77788260510843    2.33042382376881
S         -12.06025515574188    7.64788239623786    3.64557902747389
C         -13.83819855140825    6.82953727437958    1.46568381470220
C         -13.74986332056182    5.76067676095420    0.55708649287411
C         -12.54556733854344    4.99852740035393    0.84360292531604
C         -12.09483819102787    3.89073972174670    0.18821209662019
C         -10.90288670292627    3.23385907678303    0.56085005118296
N          -9.93271691443644    2.70363214659067    0.86407658959364
C         -12.79211895732129    3.33407196999113   -0.90494121924298
N         -13.35515146288370    2.88367236684959   -1.79657233695767
C         -14.81830745114065    5.71694069364807   -0.33700040936334
C         -15.72182776295923    6.73940734363301   -0.11147344169121
S         -15.24056152551063    7.77205900839815    1.22199163812151
C         -16.93171434875822    6.97369954191863   -0.82237908517139
C         -17.34372006750676    6.33833152002897   -1.96279036710734
C         -18.61364717466035    6.75461000898121   -2.41879961426218
C         -19.32900509637095    6.28593296392592   -3.54181450454709
C         -18.83875905891172    5.22018383819206   -4.39041014906651
C         -18.97115654825651    5.10108736362646   -5.74591593394722
C         -18.41582135268554    3.90499024956813   -6.24700231921185
C         -17.86834591944370    3.09280715512900   -5.29521437047393
S         -18.03144646465482    3.81934076479528   -3.73531817520772
C         -17.21338760557355    1.77201113257888   -5.46144184751177
Cl        -18.43192304351214    3.51713808479581   -7.92389449891143
C         -20.55616986842665    6.89492597156690   -3.79004066531559
C         -21.10434838329623    7.90220904053858   -2.95386580921990
C         -20.40374016111490    8.34182007317635   -1.80772655840512
C         -19.15906557610296    7.77197952056365   -1.59173137864016
S         -18.09937495136769    8.14921504541980   -0.26286384509207
C         -20.99937699073153    9.30691549272050   -0.90921300843742
C         -22.29570608748330    9.34651191963437   -0.47951734520504
C         -22.55822942163067   10.44540245303098    0.36553354679964
C         -21.47755417323717   11.24888430838047    0.59376673205005
S         -20.09131280802070   10.63566007926808   -0.24361818696576
C         -21.39186671294325   12.47706671209433    1.42173591376409
Cl        -24.12486184564542   10.73445387978463    1.02411704468508
C         -22.35937933394668    8.34473955472946   -3.41087607883726
C         -22.80418266410348    7.69079058060156   -4.53478703995898
S         -21.63221063591755    6.51726020769095   -5.10091929859712
C         -23.98748542291151    7.90971181228856   -5.27767864030777
C         -25.13937254413638    8.51992987778058   -4.88196479350297
C         -26.09350505847646    9.01001923891877   -5.91670380951989
O         -26.08033245666225    8.75275792457331   -7.09493495441706
C         -27.02179873404846    9.91227896874252   -5.19215302070774
C         -26.72404748723092    9.87453756741899   -3.81802856416706
C         -27.41332532933391   10.68922378240722   -2.93510591168535
C         -28.42523215093152   11.51149882708513   -3.42439640394497
C         -28.73262321317368   11.52371010569698   -4.79522938052337
C         -28.02070175830065   10.71960004992138   -5.69148203586194
C         -29.78366134054545   12.32542240029905   -5.31003707919057
N         -30.63455916871741   12.90556153969716   -5.81016630355965
C         -29.16640956964680   12.45185343365635   -2.51573379896636
O         -29.55906393686920   13.51910325233693   -2.88984289424712
O         -29.35088927360323   12.03868113232131   -1.25714347052166
C         -25.67031502922770    8.88606367547943   -3.58774752673849
C         -25.47455110558882    8.24333830338624   -2.39309209521819
C         -24.62786767802448    7.13013368220874   -2.21840108080593
N         -23.97101183336940    6.21047827339545   -2.01949781157201
C         -26.20198141763861    8.56307085323961   -1.22768823339215
N         -26.79933944508466    8.79985773856612   -0.27671905043024
H          -1.36851128315334   10.47420847885593   11.07655462625332
H           0.71762597823637    6.16708389166963   12.56308290521293
H           0.80940041797949   11.67862237442364   12.37007891495214
H          -3.43661457212396    4.85652385897586    9.28257722192678
H          -5.40950579805943    8.24793425321012    9.50007228059217
H         -10.24079246490415    8.56997346027311    5.64386827101450
H         -10.06035495412972    4.74750357697314    2.68309275850221
H         -14.94834573916701    4.97540002191271   -1.10265663961374
H         -16.74278562819563    5.60575366010506   -2.46594847642498
H         -19.40682464832794    5.85004981668469   -6.38050291952274
H         -16.99650697307174    1.59997287216906   -6.51290408704769
H         -17.86533795558868    0.97350154110786   -5.10563490265111
H         -16.28756079256418    1.72839892525664   -4.89060331306989
H         -23.02067171378751    8.58574772637842   -0.70187357427913
H         -22.38316198039732   12.75099400272264    1.77364411933272
H         -20.97698343669056   13.30211872831435    0.84464533518574
H         -20.74510833558921   12.31308280407162    2.28348051485099
H         -22.88776206272771    9.16909162521513   -2.96715805034425
H         -23.96027341146572    7.61315710990951   -6.32157063782316
H         -27.13965179962785   10.72436765198168   -1.89095760207531
H         -28.24734885224676   10.73263594937693   -6.74667577297990
H         -29.01577882022776   11.15007444881680   -1.07153551174415
