91
 SCF done       -193.280684980107          0.000829599581
C           1.31498943231178    4.25525228890594    2.41339538434208
C           1.78430497853099    4.90440953288600    3.52627974354194
C           3.14761234237315    4.97361433826938    3.88241146521408
N           4.24064287280962    5.07031749232892    4.21914410444283
C           0.98313327265675    5.55434249105627    4.48880705994641
N           0.39637694255681    6.08219120514510    5.32319191294419
C           2.12578497069212    3.49130411055232    1.47443557136893
C           1.26322459129714    2.83286108758723    0.56496953365632
C           1.72592675242165    2.02512011629773   -0.44527109869786
C           3.10971826070898    1.86246671821244   -0.56662089883352
C           3.96563726703636    2.52969789408161    0.34286824249752
C           3.49633733406421    3.34341996520571    1.36653367889602
S           5.63754142520279    2.19978689215434    0.00582737540302
C           5.17145407792530    1.18308051865776   -1.33212901883390
C           3.83293845630241    1.09355196198057   -1.51865110586701
Br          6.49548817943253    0.33969050299663   -2.35730590740491
C          -0.13899786661192    3.16849343274476    0.87788294877372
O          -1.11536219816489    2.77846451462660    0.27487854478779
C          -0.07461640029831    4.12508294886821    2.01029066444013
C          -1.08969377062418    4.91061499280998    2.48326432211665
C          -2.47595962716156    4.82811064398364    2.24569333406595
C          -3.27681889257369    3.79915291834511    1.76635227794056
C          -4.61902227427203    4.15129799231218    1.73524762025133
C          -4.85871436512258    5.46927312485248    2.18735372612197
S          -3.43489478411390    6.25033646280626    2.68563752195170
C          -6.24145857398780    5.73947056534974    2.06971631330604
C          -6.88332595829597    4.59747530068523    1.55746107374467
C          -5.88617684173647    3.55698859034696    1.34401835138243
C          -6.10755771141843    2.29248104142509    0.88650224638206
C          -5.08006363779009    1.33255640611872    0.75398063611498
N          -4.26967966642657    0.52802282984453    0.65824141066939
C          -7.39984246117928    1.84823675126459    0.53156483550002
N          -8.45024679184266    1.49447072647957    0.23843350147961
C          -8.25425344734589    4.77667663968160    1.39262047020178
C          -8.66402525216391    6.04661406743004    1.76395048536936
S          -7.32851682608050    7.03139248179981    2.34174117519589
C          -9.97462686058723    6.58006581882717    1.68971642194690
C         -10.35900798023901    7.87641526575862    1.97474852633038
C         -11.70940343946047    8.15734830905685    1.77977574930447
C         -12.47913757006478    7.09796965324044    1.33866802978811
Se        -11.44061814113525    5.54204121266852    1.12502547614896
C         -13.86379923348569    7.12091883145494    1.03898402451768
C         -14.66395090668490    6.04715810892264    0.68374962240494
C         -15.97902919449098    6.43168344615326    0.43678793193295
C         -16.18278290195011    7.81402155401211    0.59676171801217
S         -14.75807607690639    8.63305642093443    1.06746931277567
C         -17.53488058834537    8.10827963186843    0.30835868603167
C         -18.19508965413016    6.90904659845361   -0.03386739127992
C         -17.23975222502570    5.81701598724300    0.04227338243405
C         -17.46755116250301    4.49580206663655   -0.20391161196093
C         -16.44562303901220    3.52861871871559   -0.09189106353813
N         -15.61253812258569    2.74662215482792   -0.00036070907073
C         -18.73500185386646    4.00965416941366   -0.59094591093715
N         -19.76187224225396    3.61721211775147   -0.91540737370218
C         -19.53118410365011    7.10698086976370   -0.35980313355049
C         -19.91403867265280    8.43658367065645   -0.24436086577995
S         -18.56121837556994    9.46189445728032    0.23840046708050
C         -21.18226375829494    8.95323656727854   -0.58739606548790
C         -21.72389036059445   10.17901793340383   -0.34719402184989
C         -21.36994847844514   11.24918198960061    0.55961631652397
C         -20.83665906091503   11.09962405138015    1.81389859201898
C         -20.60202295444065   12.17052296112726    2.69876478032728
N         -20.37716942394535   13.01383480362100    3.44418934120527
C         -20.55939599758010    9.84034792411349    2.38379839154247
N         -20.35907777248080    8.82886883708858    2.88854761747408
C         -21.96246951722899   12.47415375072679    0.03497920847286
C         -22.86499354522305   12.13038584291469   -1.00371631816601
C         -22.82535338028976   10.66995258719540   -1.22200629850325
O         -23.49407654844775   10.01214768603509   -1.98381203669460
C         -23.61272079394696   13.07131145850996   -1.66901318902410
C         -23.45185752495382   14.41168392108190   -1.30144793209811
C         -22.53772595571402   14.74422088855383   -0.27241385905430
C         -21.78918673823217   13.79224908472422    0.40921479790863
S         -22.48805811681468   16.45725587291279    0.00930474163970
C         -23.68197688652712   16.70160000703752   -1.23819327009519
C         -24.09702573911959   15.55992698501980   -1.83687574345243
Br        -24.26390656223491   18.43965912837176   -1.63328562164603
H           1.04125403281277    1.53489009554339   -1.11939429389481
H           4.18867208170622    3.83397436758063    2.03002137747765
H           3.37278441153471    0.51084276933086   -2.29559062682083
H          -0.80576885696259    5.74630019529325    3.11280574526519
H          -2.88121642601465    2.85004660315848    1.45641786296462
H          -8.94131717466295    4.03810619504961    1.01303752898571
H          -9.65226683771516    8.61499322268513    2.31514122207187
H         -12.13518031981498    9.13075787643480    1.95862724799918
H         -14.28234603821706    5.04139278214123    0.61746388738614
H         -20.21905878624277    6.33347452008367   -0.65040173667353
H         -21.78198192113053    8.30612673923738   -1.22142903935385
H         -24.30007966679557   12.78403999489694   -2.44904761516440
H         -21.10033934189769   14.08866005688678    1.18314546235455
H         -24.82730750580642   15.52683368903184   -2.62458524500873
