77
 SCF done       -177.735707826774          0.000898624378
C          -8.63799589470777   -1.22295127617545    0.74801885041528
C          -9.75292151877347   -1.47885249495668    1.49611740528696
C         -10.49554755044652   -2.67848360714288    1.42659836304245
N         -11.13320594788333   -3.63201622259063    1.41979156499440
C         -10.31462419491154   -0.59343716180406    2.44208059386970
N         -10.82875598380263    0.07965851680026    3.21616713538660
C          -8.05903352327019   -2.10051970128484   -0.25844234375712
C          -6.88291998987789   -1.50377476308698   -0.78060928575006
C          -6.12516878484913   -2.09012855017965   -1.76609196449305
C          -6.55143087998181   -3.32295792680424   -2.26783212355160
C          -7.72577772896400   -3.91561849011833   -1.73906836954499
C          -8.48802460776173   -3.32538014082319   -0.74014847508317
S          -8.07016444898149   -5.43782429864651   -2.50002704327514
C          -6.65567194610349   -5.26128805763951   -3.50485089570771
C          -5.95868804910011   -4.12077758126647   -3.28324122065721
Br         -6.23368155060644   -6.59747579835712   -4.74802138481344
C          -6.64458662787853   -0.22030039030164   -0.10999023686062
O          -5.65588241029168    0.47323370510900   -0.17310945278523
C          -7.83241963488274   -0.00647094533175    0.77911337277327
C          -8.03725520992807    1.12014604977435    1.49231808998790
C          -7.28285870077232    2.33266734745276    1.26090927359627
C          -6.77711270921063    3.15414062083148    2.25091662921627
C          -6.85805629399847    2.92176621072826    3.62693332483052
N          -6.93273353713839    2.72275916482207    4.75409414017642
S          -5.94622939320330    4.53363030178876    1.61435100636323
C          -6.27656410715288    4.02680167073851   -0.00859861793642
C          -7.00826114467609    2.85430133532171   -0.03716248735982
C          -7.60052302911154    2.27582120327850   -1.17610395887880
N          -8.16548600805993    1.78930005579598   -2.04676393314712
C          -5.78619656532119    4.82445477764661   -1.10590206514775
C          -5.44979849271725    4.32588065075643   -2.35330863747053
F          -5.52461606196938    3.01927493161925   -2.60877453802260
C          -4.95110376726030    5.14263683840811   -3.39076552632405
F          -4.61916226872993    4.53944691244241   -4.53551207573061
C          -4.74202028257829    6.49793762274503   -3.24350072874227
C          -5.07115444016331    7.04416117814117   -1.98293992167933
C          -5.57241088930721    6.21514031500676   -0.92562818130652
N          -5.80786224045114    6.91631135045366    0.18163504124825
S          -5.44279774974540    8.45664593296551   -0.08605378293123
N          -4.98083592807411    8.32135883683569   -1.61339605060932
C          -4.15581569460730    7.33079932853740   -4.28466042199065
C          -4.54240471968992    7.33154027948862   -5.60991397187171
C          -5.61843697103531    6.63485562702012   -6.16967154534047
N          -6.52233643095666    6.09016078444101   -6.61767489615606
S          -3.60270518860961    8.42170730727670   -6.57243720266612
C          -2.66372468335507    8.89406211419022   -5.19174859007583
C          -3.10067699123459    8.24917880953498   -4.04517185105713
C          -2.47484994404107    8.42027843335392   -2.79612166645429
N          -1.94545650031484    8.54547398595206   -1.78760358556826
C          -1.62977640670673    9.87815433598005   -5.26389104248927
C          -0.79890574416998   10.13729781084749   -6.29656366327666
C          -0.50689008546131    9.41024109445102   -7.52211756072345
C          -0.50434696181127    8.04945736556883   -7.66321475409400
C          -0.10940393725131    7.38542105499945   -8.84415759457598
N           0.19106767165845    6.80995413768729   -9.78948936450072
C          -0.80909833791743    7.16774871639312   -6.60428558639545
N          -1.01878350688231    6.43397675412643   -5.74752411297140
C           0.05618180987371   10.36741571829554   -8.46268528300868
C           0.35016763105166   11.57142098950154   -7.76934293168424
C          -0.07783190972917   11.44942042039213   -6.36460110941123
O           0.05560272869064   12.24111614211811   -5.46551819435834
C           0.94085886997553   12.64879260429196   -8.38604381760962
C           1.24370551131651   12.53708982298067   -9.74676323112257
C           0.93159347376746   11.33563042444693  -10.43243725598041
C           0.34280495998374   10.24297105878744   -9.80912380046056
S           1.38180498034014   11.41957525879583  -12.10622470983546
C           1.98031987389322   13.04052766551154  -11.86943618039859
C           1.84820111432778   13.49832817454445  -10.60066727171556
Br          2.71898518967225   13.97363792591829  -13.31648317128278
H          -5.23932824227480   -1.60456246698165   -2.14370501538452
H          -9.37471010489408   -3.81537668375781   -0.37409011487129
H          -5.06417282108080   -3.85084043539342   -3.81413630762765
H          -8.79664415097370    1.16921215127940    2.26140074691363
H          -1.53856586383422   10.53231892536087   -4.40096045833165
H           1.16425010653233   13.54876290656988   -7.83509388074225
H           0.11634487695785    9.35008602043172  -10.36841056077233
H           2.16386649127875   14.47405731549691  -10.27960153334673
