156
 SCF done       -312.813065657106          0.000969305669
C          -6.19859932762492   -0.89878118933690    5.15904282234517
C          -6.17402707154443   -0.73658701387073    6.52001308089628
C          -5.90893133433185   -1.77915176415544    7.43468867577627
N          -5.70042469928848   -2.57432913990423    8.23607966474571
C          -6.38786119915274    0.45912713439066    7.23985319657203
N          -6.53953698946617    1.36943173271890    7.92406520536925
C          -5.93864349345649   -2.15941355531982    4.47311372861564
C          -6.00516052586281   -1.93643606308271    3.07816854263625
C          -5.79887703671075   -2.93098574256998    2.15301966318580
C          -5.51337295262566   -4.21428508805357    2.62829073914111
C          -5.45077484850133   -4.43099455903032    4.02571456872092
C          -5.65884235454077   -3.42388918946762    4.95956543068481
S          -5.08522509909193   -6.08817393669264    4.39928230021791
C          -5.02123881115587   -6.46160993331988    2.69694403259134
C          -5.26161464858880   -5.40191356140649    1.88872108473538
Br         -4.64313912279915   -8.21424941736205    2.14789407650167
C          -6.31581773732150   -0.51920351867025    2.81532428160445
O          -6.41645295405808   -0.02414960871166    1.71128859486919
C          -6.46046914549366    0.11779883549673    4.14614320017038
C          -6.79832265909283    1.40769408482015    4.45054985224395
C          -7.09970541957780    2.52241084367134    3.63710944770901
C          -7.14751934846715    2.69328402113866    2.27498187894600
C          -7.51245128660301    3.99162337561357    1.87488074375490
C          -7.60983059931658    4.48619125589170    0.55378496299459
C          -7.41708344492816    3.64701418897929   -0.60859789183854
C          -6.80144158345626    3.97864667347098   -1.78429771223259
C          -6.83016878422150    2.93086273121738   -2.72666605002359
C          -7.47420992324647    1.80428603707850   -2.29871755978122
S          -8.05348628947837    2.02692171451520   -0.68696521116384
C          -7.69067627542789    0.52586262919565   -3.02100160402471
Cl         -6.11094314889603    3.07643467893989   -4.28380024814992
C          -7.91355943290606    5.83503122543931    0.42392553746994
C          -8.13315100261691    6.70091010255220    1.52684744096339
C          -8.02970078080585    6.21099683342319    2.84595301688255
C          -7.73066572626373    4.85785987862633    2.98152803354337
S          -7.50965667265719    4.01555526115295    4.48273973076791
C          -8.19912909687269    7.05918428081716    4.00792913125025
C          -8.76959735923271    6.73910924196510    5.20724663693596
C          -8.70992559583593    7.79478882364770    6.14238791414289
C          -8.08994305456634    8.92103854440839    5.68477389982762
S          -7.56779850919250    8.68557665912413    4.05240638397432
C          -7.83949406477717   10.20034503769856    6.39526798839999
Cl         -9.37237461027125    7.66013980326463    7.72518918694157
C          -8.49484641051460    8.00152933375327    1.10643282880143
C          -8.54124083313330    8.14733918304114   -0.25161386411619
S          -8.13862152197825    6.66849358571754   -1.08840266527635
C          -8.85077587912404    9.32818342935501   -0.98953433946560
C          -9.12639947940512   10.57186819905561   -0.49722739996146
C          -9.36841241330687   11.54067891409959   -1.50049697821216
C          -9.71372588066762   12.89850897833529   -1.33382533313630
C          -9.79158140739811   13.53417719189473   -0.03486983839402
C         -10.66343693837517   14.50591300882870    0.37098818003848
C         -10.41442722240659   14.95029410450282    1.68604594447329
C          -9.35324507630705   14.34560759181841    2.29612644424639
S          -8.64432678928558   13.18351619425180    1.23158391672966
C          -8.82946728832839   14.56948515098704    3.66793959905261
Cl        -11.36619045802634   16.15978230627463    2.45535816496154
C          -9.96187066033118   13.61945662382008   -2.49903738380084
C          -9.86822704515468   13.05872216326070   -3.79731583714088
C          -9.53496775694397   11.69977341026826   -3.96461248970130
C          -9.28297278562413   10.98119505670153   -2.80071262454278
S          -8.88314740721267    9.28918103346673   -2.73632416225792
C          -9.47923559171462   11.06370993287407   -5.26475235666714
C          -8.61562060744914   10.09560001048869   -5.69287054601274
C          -8.89534150525368    9.65300154904566   -7.00354978797584
C          -9.96947551564974   10.25873627291963   -7.58817257610374
S         -10.65909250351868   11.41423058825650   -6.50166211054151
C         -10.55008557941078   10.02650464449192   -8.93493629544228
Cl         -7.95107763529103    8.44814654195353   -7.79104112493960
C         -10.09094779119688   14.02380611819849   -4.80615292145622
C         -10.36712991386013   15.27060454808911   -4.32357793497395
S         -10.36190021019730   15.31408721390637   -2.57685200497801
C         -10.65194155368592   16.43247176601020   -5.10151869284256
C         -10.53514366475665   16.54702993427741   -6.45770844633965
C         -10.91758198850585   17.81202101288066   -6.95653062109868
C         -10.93690489395615   18.24033948581639   -8.29908160292385
C         -10.54558534742203   17.38804378175532   -9.40415799703941
C          -9.83103318932105   17.74491209512395  -10.51183600145233
C          -9.65897091851250   16.67981026660216  -11.42234219661882
C         -10.23937300395725   15.50731632650141  -11.03444710582887
S         -11.01529767160532   15.71159981259665   -9.50008956779243
C         -10.24822441650381   14.19657897659935  -11.73152656685381
Cl         -8.79084488689279   16.87041460701393  -12.89640128043694
C         -11.34874929268849   19.54831208261411   -8.51948604596238
C         -11.74311362488523   20.43491413174658   -7.48494775318967
C         -11.73984586848560   19.99885793332846   -6.14207869811319
C         -11.31026979081613   18.69414500221888   -5.91818723204453
S         -11.22413268684690   17.90882942223536   -4.36500052604662
C         -12.18692083393513   20.83380429357795   -5.04790299560070
C         -11.68414638393020   20.89753729595801   -3.77859716150071
C         -12.41100965388362   21.77411340821995   -2.94599328191880
C         -13.47882236938054   22.37395095355794   -3.55002696664604
S         -13.58670988265670   21.86409144133303   -5.19870296251323
C         -14.44394870547961   23.34609062969309   -2.97853912028395
Cl        -11.98371443100425   22.04889698088311   -1.30179390080067
C         -12.08612959353239   21.70781674765163   -7.99198721834059
C         -11.96643177686046   21.81829574310382   -9.35202985232914
S         -11.47889421246690   20.29912006847607  -10.08146882456347
C         -12.25517651125595   22.97378628609601  -10.12646407672379
C         -11.85166596025617   23.26868986487975  -11.38809957950727
C         -10.84326501508636   22.67588512209582  -12.24532383766486
C          -9.65069563433427   22.14401885195442  -11.83346979701425
C          -8.67183403268846   21.63708910318948  -12.71156650982088
N          -7.85561743384577   21.19191625585507  -13.38452360493311
C          -9.23395653452604   22.14046981373445  -10.48462089287565
N          -8.82812005716460   22.17423003297951   -9.41152108735921
C         -11.18934737022010   23.02013455818706  -13.61827040059748
C         -12.20744948395584   24.00782775878021  -13.59390575135565
C         -12.60048238442567   24.27306366163286  -12.19479991396694
O         -13.39493828847228   25.08655983594613  -11.78574734070755
C         -12.70718177654637   24.57527291901047  -14.74118929363869
C         -12.18827009174013   24.13951092346141  -15.96494773803910
C         -11.18393723558724   23.14125677104400  -15.97722847035226
C         -10.66995722239971   22.57365494834880  -14.81796171847589
S         -10.69637154165970   22.74495804514015  -17.59647301798029
C         -11.82720124302745   23.91353931959034  -18.22748709385091
C         -12.53641478383098   24.56569767052006  -17.27608326067748
Br        -11.96538357146635   24.15903468295075  -20.08109775039800
H          -5.85578361935522   -2.72315615340822    1.09604721581794
H          -5.59946520187509   -3.64521737747507    6.01154187940975
H          -5.26114694899928   -5.45400116001403    0.81532222336926
H          -6.86191978064879    1.64102138613897    5.50674653925443
H          -6.90810498186106    1.89792498788354    1.59526012305827
H          -6.30610719682280    4.91417486966873   -1.96593091310428
H          -7.19824591401128    0.56315251225988   -3.98948106848225
H          -8.75462048877818    0.34449342853662   -3.17220240303709
H          -7.28707513864502   -0.30698500078999   -2.44669748338275
H          -9.25135609579273    5.80262458387661    5.41739379994757
H          -8.47665855650029   10.26157095157809    7.27425886949126
H          -8.04123848064028   11.04747845029459    5.74245058660774
H          -6.79926807290602   10.26274379758948    6.71698324255183
H          -8.73025895596685    8.80159245393663    1.78130646120816
H          -9.16275859333781   10.78128895863418    0.55445617528057
H         -11.47960842743939   14.87251948786956   -0.22287541259994
H          -8.80958387197665   15.63541478480188    3.88901284950168
H          -7.82591862093087   14.16345293419370    3.76445629716925
H          -9.47374789127661   14.08771826383821    4.40490497508097
H          -7.78406368835945    9.73018810336537   -5.11995534826156
H          -9.79996516558240    9.58666019566922   -9.58826881308140
H         -10.90463798953517   10.96066714445708   -9.36533634111534
H         -11.39592900208326    9.34040145591379   -8.87336959259461
H         -10.04500413892539   13.80678388489277   -5.85565092987410
H         -10.17389088804980   15.75031100495118   -7.07861223757715
H          -9.39679549668657   18.71576768845960  -10.66323544488563
H          -9.84340834994570   14.31550854274455  -12.73326741698929
H         -11.26118256848555   13.80266210209886  -11.79864012977500
H          -9.63869340548624   13.47123457197293  -11.19187284604147
H         -10.80594761766317   20.37470495900001   -3.44895702300162
H         -14.42398272450091   23.28783436199437   -1.89286210681968
H         -15.45195687780640   23.14028348404959   -3.33273638923385
H         -14.18341262096125   24.36327354602682   -3.27400516168094
H         -12.36542090803575   22.54308424007318   -7.37660593682962
H         -12.95048797314125   23.67741421302008   -9.67918371629701
H         -13.47385758368288   25.33278853594639  -14.69725030551799
H          -9.90896594355817   21.81245249491499  -14.87087231976996
H         -13.27517928011692   25.31682145844497  -17.48799104477451
