103
 SCF done       -215.167615482666          0.000500689704
C          -0.42877334374285    1.44131062642939    4.24275551091316
C          -0.25203000379522    0.13240533907568    4.60953635870711
C           0.96987613935896   -0.39997817913291    5.07296718541125
N           1.93309760678183   -0.89349412639723    5.45538926542757
C          -1.24920753663094   -0.86584077432702    4.60550896732289
N          -2.00332414642369   -1.73130926875623    4.64118270007873
C           0.59821945558783    2.47722751694713    4.29676288485089
C           0.01776202257229    3.71474417071012    3.92229814024668
C           0.73138616500979    4.88759517208410    3.87407286600430
C           2.08872254312862    4.83732667744939    4.20815645273237
C           2.66226848860703    3.59725866976582    4.57867705065143
C           1.93801972795688    2.41218701234535    4.63022835794704
S           4.35217056353257    3.75914955063795    4.94543607644556
C           4.26751163981540    5.46659298537087    4.60175571605322
C           3.03737266421611    5.89567258618055    4.23109641221598
Br          5.81066398968049    6.51951960168371    4.76138276900732
C          -1.40345994559287    3.50229687937932    3.60724673969259
O          -2.20466364058588    4.35665369781858    3.26771783077458
C          -1.65178153782157    2.06620961669113    3.77170787357523
C          -2.82357778295555    1.42180114260169    3.46836211801269
C          -4.04666475976299    1.93113249486762    3.00607458287027
C          -5.12160811372222    1.08817323895048    2.69537626538468
C          -6.23406529480616    1.78465419587558    2.26699173313782
C          -6.01994116329503    3.18542224949749    2.26078655315950
S          -4.45213868068402    3.62998228188273    2.75545534490365
C          -7.21221325783073    3.80565132334046    1.81801699715823
C          -8.17251035341990    2.81231389549183    1.54302191859513
C          -7.58819004833839    1.50905467332550    1.81477416842080
C          -8.18734391222933    0.29267829597213    1.67035096475125
C          -7.51923968965957   -0.91722251370879    1.95572826763737
N          -6.98417824425302   -1.90558451246049    2.18076504380536
C          -9.51882356213403    0.16513352393633    1.22126836176444
N         -10.60180549392468    0.06372697609058    0.85843651801061
C          -9.38460334641201    3.33483641362738    1.10222367247754
C          -9.35883062282620    4.71936486334734    1.04408270980064
S          -7.80858695345307    5.38235418382834    1.53725693571949
C         -10.41235559292070    5.57940745639948    0.65253755808989
C         -10.41362398717432    6.96495431972768    0.64480649303768
C         -11.62920254984183    7.48136987681375    0.21007398687899
C         -12.56478611130068    6.47968103469836   -0.12727248441504
S         -11.94200031797424    4.90504716579346    0.10641314479701
C         -13.75259391954486    7.09792047301516   -0.56553857795850
C         -13.56755385797921    8.50051806907111   -0.52719244409100
C         -12.23098375410149    8.78058753809482   -0.02162748115384
C         -11.67653468219484   10.00261666101976    0.21617271068477
C         -10.40980224893253   10.14494355286495    0.82349456191229
N          -9.41162190527828   10.25642157817343    1.37490824130432
C         -12.34273358193899   11.19776888830375   -0.11786281534184
N         -12.87767206580787   12.16697263039447   -0.42061277805187
C         -14.68706490217627    9.20993926413369   -0.91995955684224
C         -15.76051743425707    8.37717605755735   -1.25012803333487
S         -15.32298309501032    6.67174015866978   -1.07626709842456
C         -17.07125232209491    8.69596600273702   -1.62386674825955
C         -17.59154273971264    9.94671467459447   -1.87693099108081
C         -18.94740608418385   10.24656129314264   -2.15247698714977
C         -19.20428764635680   11.57157764573578   -2.36408945335085
C         -18.05699222267365   12.38523350709031   -2.29318519386029
S         -16.65053908094936   11.42372826404659   -1.91959195418594
C         -17.89533697221750   13.74624233323081   -2.51165662314341
C         -18.81914618901437   14.76816324910684   -2.79342060368191
C         -18.23231830606179   15.98324617663326   -3.02472399467123
C         -16.82013484547247   15.97091419000093   -2.97532196701622
S         -16.26868684449214   14.37860345235996   -2.54504374913764
C         -15.96722815648154   17.05558765456198   -3.15141312563440
C         -14.57796341810143   17.04080651598829   -3.18540436809321
C         -13.71054334855613   15.97635619133892   -3.40340333730879
C         -12.34705221057089   15.99467538652967   -2.82691145750138
O         -11.76766205041575   16.93173239326416   -2.32875161282932
C         -11.85784879191156   14.58929237674374   -2.94599262641584
C         -12.80416051713197   13.84753919730785   -3.67194462663185
C         -12.66085363310757   12.48185196460262   -3.82225581829319
C         -11.54791112606808   11.85557231628060   -3.26396216436299
C         -10.58446879895484   12.60880246722020   -2.57331752556902
C         -10.73893639076019   13.99189492675716   -2.41180089158406
C          -9.43508103945779   11.98714023605974   -2.02725989521230
N          -8.47289244142016   11.54721100705331   -1.58794445658024
C         -11.43280287976703   10.36817169501667   -3.29606541234421
O         -10.92336913509102    9.73930842825353   -2.40514041899340
O         -11.97007412614309    9.74257669386696   -4.34865340326330
C         -13.87993603089035   14.74050302545303   -4.09669541162214
C         -14.77868117323347   14.44846138753803   -5.10232516638978
C         -15.71981168517432   15.36549579864168   -5.60150606363665
N         -16.50244889130900   16.08215701627439   -6.04047049634775
C         -14.79654335510761   13.21782935997858   -5.77921934167349
N         -14.83827122881266   12.21206335070362   -6.33476299628274
H           0.25865414922183    5.81340623781389    3.58606327785907
H           2.42335753960986    1.49427464986336    4.91613956039722
H           2.80726104796000    6.91559088233559    3.98262697096219
H          -2.83282853381815    0.34418291192200    3.57989553334339
H          -5.05584159760418    0.01857743068296    2.79012160445231
H         -10.25183876576798    2.75721679389396    0.83651944675250
H          -9.56274446748034    7.55227356987447    0.93975443151959
H         -14.74175053402709   10.28165642217807   -0.94136497719210
H         -17.75974769526280    7.86517801631696   -1.71249286375415
H         -19.69542574414394    9.47391490821869   -2.18015911907139
H         -20.17586352211358   11.97529263235253   -2.58483726385462
H         -19.87951095890435   14.59202737752838   -2.81808875077616
H         -18.77406046260482   16.88031363084714   -3.26519242802740
H         -16.44963010621272   18.02379769529586   -3.18505806109640
H         -14.08046170463814   17.97350111358725   -2.93859969679221
H         -13.43485220901033   11.90064441495881   -4.30023726130633
H         -10.00803026217300   14.56493826400420   -1.86203062803616
H         -12.33036202761151   10.34200767913406   -5.01862765115172
