98
 SCF done       -205.564444344294          0.000526772784
C          -1.64484649323597   -0.08417389999082   -2.89236752675928
C          -0.37536470455980   -0.04615177481179   -2.37697663330541
C           0.68400092799705   -0.86321691528642   -2.82601684439815
N           1.58554596057776   -1.49734692559215   -3.14657123609156
C           0.06138874002654    0.78251520693990   -1.32167916399486
N           0.49312913737976    1.41283692176194   -0.46430763715103
C          -2.09656251075956   -0.98078180030870   -3.95219767718713
C          -3.48470061764514   -0.78179201636328   -4.15638856624576
C          -4.20776182819892   -1.48238628585451   -5.09093452120108
C          -3.52660072512157   -2.42549118031703   -5.86736213911245
C          -2.13947819406289   -2.61689154840160   -5.65985697169081
C          -1.40999918591884   -1.90929166900284   -4.71179962177177
S          -1.49436226309276   -3.82465849269230   -6.72842467360247
C          -3.07417812390904   -4.05394823678324   -7.42983511728201
C          -4.03715114250310   -3.26723807285293   -6.89266657568012
Br         -3.30304890085773   -5.30762451328970   -8.80525919462222
C          -3.96099277863567    0.26092412717254   -3.23426270100583
O          -5.10668114518403    0.66781018349852   -3.13410136113729
C          -2.78748903956125    0.71128602036159   -2.47969267304044
C          -2.76765670557159    1.74787036342412   -1.58180006025082
C          -3.80610638953224    2.57110344705939   -1.12169534256748
C          -3.56871649689500    3.62322462120571   -0.22737995276829
C          -4.72208782883214    4.30293992289625    0.10953757760747
C          -5.86735268208892    3.76029571617713   -0.52331068512575
S          -5.51505228280322    2.44071284323260   -1.53985262554858
C          -6.99095757727092    4.51626922232108   -0.10964667542602
C          -6.56628618151197    5.52672727025804    0.77230757145983
C          -5.12636700448450    5.43002194110453    0.93723341389654
C          -4.32910350215232    6.23240746358825    1.69863760641990
C          -2.93169295089454    6.04987695645905    1.77541283667712
N          -1.79574293834085    5.90956318408129    1.83854346559634
C          -4.84575163575125    7.30539009829217    2.45624830675228
N          -5.25603322964364    8.18014650421515    3.07352375059309
C          -7.61146544233822    6.32141194824395    1.23801430528102
C          -8.83542806709731    5.93245815679697    0.72767041888588
S          -8.67793267141376    4.54845916284152   -0.35573528517969
C         -10.13301475185666    6.48862377429240    0.98463070370862
C         -11.27798417466761    5.86760434029476    0.50306691473074
C         -12.54883455241946    6.35384854459648    0.75800884747398
C         -12.77174689836679    7.49996747459047    1.51021470186890
C         -11.61972970788524    8.18968450988930    2.00511695148597
N         -11.76816508798874    9.31614140594878    2.72469809321694
C         -10.70696951366472    9.93276830965299    3.16936432531505
C          -9.41681164681568    9.44503305219336    2.90085932041966
N          -9.23847113810260    8.35425245177719    2.20633795046758
C         -10.31134059340271    7.68786692064113    1.74420253118985
C         -14.10760321972542    7.94672622624740    1.78315310162675
C         -14.52284006357671    9.06756070768372    2.47705122779423
C         -15.91040969687382    9.15800044262347    2.55878307382084
C         -16.57113693090539    8.09282961439954    1.92069377574589
S         -15.47862888461472    6.98931844965860    1.21848804843375
C         -17.96858236074003    8.26323232474918    2.08238998525586
C         -18.18766457060510    9.44422128144347    2.82155366937005
C         -16.90316104185690   10.03927322234981    3.14958678244920
C         -16.68805790200281   11.16297528142553    3.89205756055741
C         -15.39347684188628   11.65231305713719    4.16685852076288
N         -14.34463063557297   12.05878902419498    4.38807193285264
C         -17.76381527310022   11.90098654105323    4.42983114785403
N         -18.65157054761658   12.48954311538571    4.85479418040080
C         -19.53058883168217    9.68093864404016    3.07778251738888
C         -20.34914339561111    8.69134312189976    2.55136489160628
S         -19.42039664176165    7.47008687800918    1.68689298833461
C         -21.75527023070747    8.58459762079829    2.60064905211605
C         -22.62844569840429    9.20388432216346    3.44330662825533
C         -22.46957938330269    9.93077611009998    4.68582599133605
C         -21.50752179529886    9.73118111207092    5.64222872550048
C         -21.49921030821114   10.37942048897442    6.89550719726928
N         -21.44952206015151   10.87387172414706    7.92971726294899
C         -20.47203654741776    8.78304455733285    5.53501425628582
N         -19.62874081691582    8.00403725164516    5.50583101455875
C         -23.68268472637536   10.71843093179247    4.88183576917806
C         -24.65477880234101   10.30236314354768    3.93703495922779
C         -24.06504948178998    9.27976203448734    3.05255747057479
O         -24.60341099210037    8.66017398828426    2.16463095686424
C         -25.92223841515094   10.83158606089129    3.90311589053394
C         -26.23897269549707   11.82613301828527    4.83458243938741
C         -25.25315198884853   12.24968702913097    5.75885429334117
C         -23.97402705328235   11.70826295966149    5.80024916482105
S         -25.85262226647017   13.49875058667413    6.80557237777184
C         -27.40036669108014   13.43226972499976    6.00513058296466
C         -27.46603539992088   12.52414940988597    5.00241108506890
Br        -28.78175549625979   14.56875845275752    6.56662804948317
H          -5.26433352432769   -1.30758028050067   -5.22018357791323
H          -0.35501196443390   -2.09169824250920   -4.59544696855052
H          -5.06503614775768   -3.27853230504037   -7.20611574271777
H          -1.80720356771428    2.00371425576137   -1.15069375805689
H          -2.58310957356451    3.85081776648340    0.13886685576079
H          -7.51677143515961    7.15001961541834    1.91435660388109
H         -11.17814951448845    4.96464349657615   -0.08187824905594
H         -13.39674719025651    5.81385280489581    0.36166898583342
H         -10.87731807639374   10.83209095666535    3.74463851474535
H          -8.52474172180682    9.94525954407771    3.25106332025745
H         -13.82241450036160    9.76515257277033    2.89685300815914
H         -19.91298562756668   10.54766832196348    3.58525287523170
H         -22.21997963939344    7.97743317678930    1.82956253772705
H         -26.64720639126755   10.49011841497914    3.18110350033689
H         -23.25167205760877   12.06708631973901    6.51463635100538
H         -28.34256684169288   12.35236638686032    4.40483104074041
