105
 SCF done       -219.439783593756          0.001355061169
C          -1.39198283554783   -0.02514275879872    6.94001064490622
C          -0.78841732924599   -1.16287931697612    6.47184636209535
C           0.23778382744731   -1.85050248235806    7.15444971905695
N           1.06967068773451   -2.45717507161980    7.66154722507505
C          -1.08038499120692   -1.80794250848996    5.25105846827810
N          -1.25041682618850   -2.38547578288084    4.27322806070237
C          -1.05503787246486    0.65632007437464    8.18679518704021
C          -1.85402509022411    1.82135878857531    8.29970543672210
C          -1.78082483808921    2.67460469380855    9.37431377477111
C          -0.87564399790014    2.36097236443036   10.39328875595625
C          -0.07780707918903    1.19769464044977   10.27249871126888
C          -0.14991459703496    0.33822856788782    9.18215722374157
S           0.96768368467629    0.99526588702535   11.64530922813625
C           0.32476207345014    2.45331507108778   12.35557539402039
C          -0.62197915271363    3.06349776995928   11.60325905255105
Br          0.96096274406812    3.02902977762870   14.02374074463592
C          -2.73069733052788    1.91808654928165    7.12311629171822
O          -3.52895796321705    2.81012958193247    6.88866397540935
C          -2.45751590969607    0.73165096065823    6.30542109156993
C          -3.14940794141048    0.36579791913024    5.17958726449699
C          -4.22042484756687    0.99771267452630    4.52820989669578
C          -4.87259602923744    0.40423311997695    3.43981088763959
C          -5.92218552646762    1.16930333841800    2.96981512559487
C          -6.06498236358615    2.38008578444492    3.69020903131819
S          -4.93140155790542    2.55677774514404    4.94772127075454
C          -7.17511944278114    3.07625906473133    3.15488366011526
C          -7.73899616629498    2.31442397965425    2.11532950669336
C          -6.96053140931058    1.09666299336513    1.95366158951800
C          -7.16771884803422    0.10487684766020    1.04136629887907
C          -6.34843412346572   -1.04231080237976    0.97258782209741
N          -5.69218713301234   -1.97991556810835    0.91146649759662
C          -8.22011953601351    0.16554997356058    0.10318494683533
N          -9.07718485532513    0.22328839198754   -0.65628397128350
C          -8.86584903008256    2.91099991357176    1.55362521352803
C          -9.15621274846901    4.12603520125632    2.14925700510476
S          -8.01824330690494    4.53842126370074    3.42214841509498
C         -10.24114627215327    4.98900507465298    1.85212979928447
C         -10.46649289812212    6.26566459650842    2.33446935728047
C         -11.65568168582838    6.80480344225491    1.84480997609374
C         -12.34466973613725    5.92227097141548    0.99353650453852
S         -11.51975450229990    4.44366296097729    0.77579427513408
C         -13.54694901882133    6.54263245375430    0.57805115747607
C         -13.61415510252287    7.82553459942545    1.14929484793910
C         -12.42364825735360    8.03431945168492    1.96104011950541
C         -12.10051732039499    9.14619939301881    2.68118052084274
C         -10.91852684086156    9.22306799101030    3.44810261987887
N          -9.95966783446696    9.28268122085163    4.07313591107982
C         -12.92828813371043   10.28887015932538    2.70245010286751
N         -13.60458947647492   11.21460631596433    2.71377723328700
C         -14.78484717241284    8.50541376260714    0.82059124879191
C         -15.62154047073719    7.74692376137036    0.01922314409415
S         -14.92779510278365    6.16989235853838   -0.35070433069764
C         -16.91591894627844    8.09098718052683   -0.46556247942156
C         -17.73365828361308    7.17911292368138   -1.09710463135563
C         -19.02327622703074    7.44381365307548   -1.54011886825269
C         -19.62368953472477    8.76722906944824   -1.38079077590885
C         -18.99477635948382    9.81927835757354   -0.80769697689486
S         -17.40574406050798    9.74977307234018   -0.17264902205321
C         -20.93434618237834    8.65408611012302   -1.91917932596728
C         -21.15808926360372    7.35244714074791   -2.37806139713566
C         -22.46228924093520    7.20770797941002   -2.89999670610491
C         -23.16912297882808    8.36644285678950   -2.82210419582713
S         -22.29446406362421    9.67982615765067   -2.12078878945575
C         -19.96267084284656    6.57350802457798   -2.15007771123603
C         -19.72812990617299    5.21605961795743   -2.40832190149966
C         -20.62820321986196    4.31569605692635   -2.91718462602013
C         -20.30628741996318    2.96497103741520   -3.08043303113348
C         -21.13778531618540    1.93605671615532   -3.45695097554387
C         -20.54907365524760    0.67360848107953   -3.94757275371046
O         -19.38821935553564    0.33233915955137   -3.89607116913677
C         -21.67842088812603   -0.06992638964637   -4.56110059822170
C         -22.86859497343756    0.65799592372930   -4.37557681014477
C         -24.04961299258322    0.19384614821002   -4.92500932131748
C         -24.05603732822572   -1.01368611517672   -5.62563290903616
C         -22.86600795120534   -1.74618666323855   -5.77506414467799
C         -21.66119018986113   -1.26146963571895   -5.24727181982476
C         -22.80597994273754   -2.97825149224354   -6.46691687587414
N         -22.71234511922320   -3.98942119847027   -7.00189250862441
C         -25.37933639491821   -1.40716447693745   -6.22599364785024
O         -26.20637628341306   -0.57636377715904   -6.47887583896178
O         -25.61734253481891   -2.70164940178384   -6.45024799526045
C         -22.57058859644371    1.84377741568009   -3.56529911676643
C         -23.51344675829753    2.55893800369169   -2.86885135040558
C         -23.22751803094124    3.50761155612228   -1.86542058061486
N         -23.07322341217274    4.25894305830493   -1.01052151517930
C         -24.90462517128348    2.34905663154510   -2.97742142998488
N         -26.04649336954897    2.24198960604800   -3.02005081050883
H          -2.40491191140660    3.55272585036265    9.42909570869174
H           0.47766222216352   -0.53613795223209    9.14091079083405
H          -1.12283314890402    3.97048268184273   11.88935445702849
H          -2.86897386605954   -0.57144919714953    4.71395265188688
H          -4.57270055249514   -0.55010897268412    3.04389191796159
H          -9.45416474705067    2.49853719530529    0.75361206240012
H          -9.78887868533404    6.76188374535590    3.00586557807266
H         -15.03624248198295    9.49579621346376    1.15508503447679
H         -17.33278818628995    6.18278484082821   -1.22916017188590
H         -19.46010762240842   10.78626188898886   -0.70076931818010
H         -22.88449132611692    6.30911209691589   -3.30784563955598
H         -24.17917732947578    8.53654987864007   -3.13984293322718
H         -18.75220548775005    4.83442210441289   -2.13396049295608
H         -21.60970879483381    4.65423809280086   -3.20074640471788
H         -19.26440572030449    2.68161081300450   -2.96724344327349
H         -24.97932154820416    0.73587718486231   -4.84793554675940
H         -20.74161709251705   -1.81141025993100   -5.37960274317249
H         -24.87666137807050   -3.29858615736636   -6.26761725234128
