105
 SCF done       -218.400023372068          0.002103002668
C           0.66700293375719    0.27948586531998    2.87410800475834
C           1.02526755013507    0.65679546673333    4.14287897418691
C           2.12898682361763    0.12439360496592    4.84179815124556
N           3.00735302480717   -0.27687469092044    5.46249986032968
C           0.38168280693521    1.64962663160434    4.91151621994113
N          -0.07176742757649    2.46186871994115    5.58510031100143
C           1.39531337291836   -0.66277937084284    2.03408848078549
C           0.81096520179908   -0.66301121149921    0.74458996714536
C           1.27775991587146   -1.44770230308692   -0.28181078961663
C           2.37425911622062   -2.27593565736258   -0.02151771018589
C           2.94922323894732   -2.27394222490622    1.27217136869392
C           2.47806391115744   -1.47769610812952    2.30883172681860
S           4.28606249674151   -3.37827932242682    1.37897147561691
C           4.06016871031116   -3.81934505593499   -0.29339256569329
C           3.03601621344393   -3.17532201560403   -0.90169215969719
Br          5.19333355112945   -5.09290246606072   -1.07452415984065
C          -0.33212930270420    0.27002124631748    0.71684989740384
O          -1.05169674024818    0.48513982168136   -0.23473079815553
C          -0.44118342591350    0.80475105667606    2.09589847790481
C          -1.48982122708732    1.50525250750390    2.62718296723836
C          -2.57274202695206    2.13353380203576    1.98229237467476
C          -2.76952319808773    2.53373028300298    0.66608765480091
C          -3.99552475621074    3.15901315004640    0.48631953081530
C          -4.75959125970509    3.23467641141608    1.67469503202135
S          -3.94555148166035    2.57499839177964    3.01138284222962
C          -5.99910712909841    3.84055639606521    1.37385713346139
C          -6.02485202269110    4.16367338811588    0.00402128803750
C          -4.75934855089135    3.75882863700710   -0.59424132031655
C          -4.37622326691925    3.92779622362637   -1.89196685108263
C          -3.10555439302005    3.54499082225331   -2.37483616332064
N          -2.07489285685174    3.26445056165911   -2.79022247797636
C          -5.22695114842146    4.52611358000467   -2.84604717884405
N          -5.92134266827685    5.01170695061855   -3.61859154584140
C          -7.22042157571431    4.75832013071435   -0.38995263788189
C          -8.10973332815071    4.88156967578074    0.66622628616179
S          -7.45001625783975    4.26379392445483    2.17326876427465
C          -9.42218527518880    5.40942864944249    0.63981952006681
C         -10.33088416732284    5.43945288295918    1.68382299255975
C         -11.54294317055330    6.00997921271728    1.30713414082426
C         -11.55821911964757    6.43006772247313   -0.04152285724830
S         -10.07768773974026    6.11019236011748   -0.83687590401827
C         -12.82172615844154    6.98301993986344   -0.32790344089158
C         -13.61921334719261    6.90822045207500    0.83762593707117
C         -12.83490363185204    6.29192986293324    1.90004631446042
C         -13.24225802945083    6.02219585118359    3.17399246748304
C         -12.38724475797907    5.40937557111597    4.11427709572460
N         -11.68879439253672    4.90644776659220    4.87182144776558
C         -14.54484786977620    6.32172622886173    3.62553325757805
N         -15.60582115863122    6.55736928325922    3.99025641651418
C         -14.89505797895622    7.41280167731295    0.66729210840223
C         -15.10846186084135    7.88739004037957   -0.62990629057197
S         -13.66545722848133    7.69276109751958   -1.63344121769845
C         -16.24973468399957    8.45035812273000   -1.20982438331387
C         -17.49251992383944    8.63037763287442   -0.64204440331550
C         -18.61208662041070    9.18627344979898   -1.30762196864651
C         -19.74998482067876    9.22742091439173   -0.55705243412391
C         -19.58915883663153    8.71025871641189    0.74532741741137
S         -17.94574680510226    8.17909825416104    0.98946852724734
C         -20.54321232459879    8.58613885207131    1.74508430547585
C         -21.91206813914517    8.92257765165174    1.68182014727143
C         -22.59900858150115    8.65034409989705    2.82913222599931
C         -21.80184973708374    8.09232345287212    3.85463570087192
S         -20.15132364749162    7.92746281442877    3.31354082059930
C         -22.15526615542372    7.72618087085259    5.14065875152093
C         -23.45676866344915    7.72083262269646    5.63339317753741
C         -23.83729373491560    7.45566998017571    6.93234443687198
C         -25.21398659765414    6.99631026920083    7.22184412922057
O         -26.16114612463195    7.00912674227663    6.46526362015136
C         -25.16653018157799    6.47237228093835    8.60452785170890
C         -26.14236900784415    5.84262239205315    9.31996605803252
C         -25.85283376254874    5.39126689192050   10.62837627188672
C         -24.55046384096147    5.59882640596158   11.16694831183946
C         -24.26500689665890    5.13735215724041   12.46708954881669
C         -25.22847090970896    4.50278181561517   13.20028167621678
C         -26.51669809403401    4.30093287581622   12.66813693581848
C         -26.82404230235894    4.73546255187862   11.40893919166057
F         -27.44288935469375    3.67545565633365   13.40934814188011
F         -24.95459583979887    4.06482299036146   14.43740567933098
C         -23.56177918885819    6.26434325291949   10.40428012689825
C         -23.86813785412619    6.69998871104353    9.14438422538852
C         -23.07894102258048    7.43092925654000    8.15185759896226
C         -21.93608743370250    8.14837737335004    8.42166930622781
C         -21.38050724310485    9.09303673097054    7.53565828284527
N         -20.92930220006459    9.91298034421870    6.87002585408813
C         -21.26745183514882    8.11568925200175    9.66029162290256
N         -20.67696993373495    8.11135799754559   10.64592616715123
H           0.81158186229677   -1.42226405739839   -1.25426112379798
H           2.94622391378192   -1.51579282777274    3.27811074348760
H           2.75641335200109   -3.32739379143213   -1.92809313575859
H          -1.53262165278481    1.56974346603896    3.70861884725616
H          -2.04422443828596    2.36408307942876   -0.10766919549176
H          -7.45524761645722    5.08294195350548   -1.38792705812260
H         -10.10544223662168    5.05316185119389    2.66166118749767
H         -15.64171855092568    7.44598267164941    1.43758282769584
H         -16.15137335310641    8.76934812695503   -2.23987512687705
H         -18.54318468360590    9.53419086349256   -2.32312382868864
H         -20.69047318175032    9.61291304333929   -0.90662288237550
H         -22.35567308689269    9.35006590257420    0.80059821907426
H         -23.64735609098564    8.84538719130459    2.96300242153391
H         -21.35559615802185    7.38656678412533    5.78420886596976
H         -24.27730223366135    7.83206441734832    4.93437410497623
H         -27.12269279899305    5.68859107790325    8.89532024521643
H         -23.28432992992888    5.28698368292195   12.89098547806079
H         -27.81532162255150    4.57273386657863   11.01581758254772
H         -22.58320812553712    6.40427388707571   10.83500648724817
