112
 SCF done       -223.166592935215          0.000993602254
C          -7.74099627088526    7.96846706737356   -9.00076871674248
C          -7.74547769880065    9.29634327075929   -9.34208578631279
C          -7.36689855578621    9.78638919346122  -10.60973583915204
N          -7.06556291147954   10.24632502809651  -11.61736373222278
C          -8.14917984346422   10.35620775616142   -8.50258148458805
N          -8.48063242339500   11.26932822157688   -7.88998913482523
C          -7.41051449515026    6.86767699201722   -9.89686210647015
C          -7.65707591482073    5.64709976964466   -9.22354629793595
C          -7.44352405136381    4.42117938057158   -9.80543526773661
C          -6.95916383828524    4.39846892276557  -11.11719812091791
C          -6.71023457868363    5.62349925826808  -11.78180814562154
C          -6.92935453860011    6.86272964532014  -11.19330161204928
S          -6.10523416343457    5.36627299898363  -13.39000211316324
C          -6.19523678583156    3.64111022655008  -13.15206071462531
C          -6.65421233397443    3.27410471189205  -11.93194929265712
Br         -5.67030411452406    2.48863072033034  -14.53479976326293
C          -8.14158581390352    5.92225525845652   -7.85713677942813
O          -8.41935219806415    5.08994213971440   -7.02108917926452
C          -8.13009118951955    7.39962888949353   -7.72153536551259
C          -8.25674493328745    8.11848359780978   -6.56496135939080
C          -8.67940090752296    7.69799273785736   -5.28784774980732
C          -9.40583618186929    6.59269974862069   -4.86323893781981
C          -9.58713363702343    6.58334111866497   -3.48703205665703
C          -8.99394393114505    7.69046611303833   -2.84138161761266
S          -8.25920829839357    8.76065846536524   -3.93587959224551
C          -9.16778993513379    7.54149134771481   -1.44233380863695
C          -9.86601363525106    6.34767863372064   -1.20479144767720
C         -10.19512062431672    5.72918546684521   -2.47882310721065
C         -10.96566742744676    4.62267097108181   -2.67071605381979
C         -11.28716399743701    4.12091812516159   -3.95024465917944
N         -11.57099235318043    3.70127928853799   -4.97822590326507
C         -11.52876707817246    3.92224350350963   -1.58217302430733
N         -11.97465647592093    3.35503597236187   -0.69078918093230
C         -10.03309343929469    6.08171572741456    0.15543649721994
C          -9.49528290562780    7.07437726790307    0.94821929777411
S          -8.73623038065958    8.34369882054150    0.00366615915331
C          -9.42726937719634    7.07610678358704    2.37753972717336
C         -10.41900791313827    6.79687986716933    3.29938120878444
C          -9.89441104903656    6.68396391727239    4.64079497063251
C          -8.54846782507045    7.11862736188829    4.71524413099455
S          -7.89145736548814    7.43297646614879    3.12809592602379
C          -7.83086170722920    7.23395593551156    5.88989759978381
C          -6.39826075312014    7.67310996380875    5.89542715089478
C          -5.46026215766419    6.46520150109177    5.93385155718955
C          -8.50324961808431    6.86082082235881    7.05877153947548
C          -9.79738855798306    6.29733171892380    6.97097344764167
C         -10.50134976946360    6.14720716296460    5.78278363211844
C         -11.73252565680495    5.28781125008615    5.76139322643761
C         -11.33823641411100    3.81777151754440    5.93957147863651
S         -10.37862422919888    5.82184756351567    8.54594526489961
C          -8.92590392403804    6.39542345625487    9.28507152235242
C          -8.03656149047692    6.90042680154413    8.40677476359763
C         -11.81989327024112    6.99615572708712    3.02548880780610
C         -12.55463964171729    6.80650353110855    1.87588141671154
C         -13.85216906686903    7.31442981825698    1.98268002651929
C         -14.11693855404746    7.89561578413238    3.23111959669425
S         -12.75351962391004    7.85798701805366    4.25582965923807
C         -15.46691398177440    8.33094893673589    3.25080456289530
C         -16.05116019187948    8.02130060876499    2.00521377282146
C         -15.04097122499579    7.41457140842374    1.15450137964560
C         -15.15802783120234    7.11410972860270   -0.17187033729306
C         -14.06227972128951    6.66970341261080   -0.93734711991967
N         -13.16025963588616    6.34643033212644   -1.56870522937074
C         -16.37834990883708    7.29388099712659   -0.85739614259889
N         -17.38296056989305    7.43882674136067   -1.39061869969477
C         -17.37328389908404    8.43291863452727    1.91036182163826
C         -17.81304483483679    9.06159752014465    3.06734817238137
S         -16.55413093147300    9.10667952109595    4.30054004822826
C         -19.08160315955621    9.59391352639824    3.37399453528978
C         -20.11103635523323    9.91664701044636    2.54102701523617
C         -20.22528229147287   10.09438329418681    1.10932413665649
C         -19.24980034756415   10.53198379579535    0.25018233427827
C         -19.47626607630526   10.82169506952544   -1.11206437249171
N         -19.61217789451187   11.07902099981814   -2.22180676251507
C         -17.93579828711510   10.84629997316140    0.64492598245906
N         -16.86034049925732   11.13407037795817    0.92703559516504
C         -21.64416213445449   10.00302447457219    0.77601525309706
C         -22.39728854801785   10.02256330075685    1.97713123914717
C         -21.47442586822831   10.05425412474499    3.12701298665651
O         -21.74905482120032   10.12771150076937    4.30258014737022
C         -23.77070627611388    9.99289966661927    1.98669132329961
C         -24.42994486677524    9.92598634478037    0.75469924814744
C         -23.66750665640416    9.88490056557093   -0.43774426570928
C         -22.27831908581066    9.92511510473950   -0.44860753947751
S         -24.68342770855064    9.78534685296400   -1.84263114364078
C         -26.09941363207655    9.80701033943615   -0.82527784290685
C         -25.82781274589500    9.88184939466636    0.49939802015932
Br        -27.80179417184486    9.72678391777167   -1.60681586339729
H          -7.64407030923646    3.50964355489440   -9.26466208229028
H          -6.71903978760438    7.76666466154782  -11.73983615844529
H          -6.77264866112741    2.25340455531317  -11.61720544095539
H          -7.94982570122668    9.15760678496695   -6.60084607252997
H          -9.76937833978815    5.83924459953416   -5.53652762883443
H         -10.45687795101209    5.17893822014524    0.55665188381947
H          -6.21000307326679    8.31055056665375    6.76077286096893
H          -6.19780489096460    8.25610886012029    4.99329953818228
H          -5.64243859898768    5.86879550797156    6.82491065178607
H          -4.42407726725810    6.79349213610138    5.93921734744671
H          -5.61976278478291    5.83665050246114    5.06073082076724
H         -12.26131399626671    5.37472296142491    4.81527604539093
H         -12.40415009961438    5.58477002166272    6.57023106388891
H         -10.66519114569441    3.51051065360886    5.14194727680423
H         -12.22600682054377    3.19181326564295    5.90332110327376
H         -10.84220455786482    3.65635900763087    6.89245198179302
H          -8.82662904571217    6.31175410220966   10.34983363012035
H          -7.08042494721881    7.29675680111721    8.69575959419115
H         -12.19036255316392    6.29980178740879    1.00508556113431
H         -18.01170751538912    8.24510644642171    1.06660209897212
H         -19.30681997439446    9.70800174498924    4.43051885033500
H         -24.32000931109019   10.01954449816791    2.91461576369874
H         -21.73792710904388    9.88221171131503   -1.37974334390975
H         -26.58046557269242    9.90465924711388    1.26616174399653
