104
 SCF done       -167.093150286641          0.000231310069
C           5.83019823057558   -1.70110529156637   -7.16657643489644
C           5.81435323321312   -0.44675688665404   -6.63946869577638
C           6.21056176175098   -0.40801236421239   -5.28744564476238
C           6.52317578074961   -1.68395828308921   -4.82581709456572
S           6.33258350419525   -2.89841489942359   -6.03034550864721
C           6.93484088657719   -1.76895041946897   -3.46787292700824
C           6.97785955498825   -0.56155907932146   -2.76992183422690
Si          6.44538940623936    0.83027844217327   -3.90462013147605
C           4.85079125858746    1.64934324981154   -3.35764976724373
C           7.79985821740877    2.08121919521567   -4.23873204667978
C           7.38459752429207   -0.75515369726949   -1.44599839882082
C           7.64572357675079   -2.07213530546818   -1.12916574798977
S           7.38945333641426   -3.12088526440738   -2.50747721325999
C           8.04762264186339   -2.61961686642741    0.11565958811130
C           8.25774960171525   -3.94854395845581    0.42672384910782
C           8.61105204543666   -4.17139488077338    1.75735709039626
C           8.67727074826697   -2.96951093671967    2.47576335947846
S           8.30764156887689   -1.59177201907097    1.50784743152048
C           8.98541973153394   -3.08984429436447    3.84919507851510
C           9.17399116451014   -4.40273690969549    4.30877673357930
Si          9.00279560508801   -5.60911224276590    2.88918115565166
C           7.59612520831012   -6.82650756138209    3.11514676844891
C          10.60865134652428   -6.47433489084736    2.45849838486247
C           9.40045568736304   -4.43987047037368    5.67737308659869
C           9.39341119209752   -3.19381644762735    6.29432354765637
S           9.13434467860643   -1.92221237394462    5.10517575602606
C           9.50721470204180   -2.86463320841465    7.65683532734039
C           9.34110652063434   -3.73301843814200    8.70895449113909
C           9.41553449984683   -3.42750078164422   10.09049851123092
C           9.08220015322923   -4.45788807267340   10.92242669357455
C           8.72030967653109   -5.64011843133008   10.24740417738738
S           8.86514884134657   -5.41133824004031    8.51738570686544
C           8.25887990553643   -6.85456389625756   10.71976528490534
C           8.05056084496423   -7.32433368627919   12.03087010058441
C           7.52458900377812   -8.58339092920868   12.08816340023081
C           7.27572046199833   -9.18194226915303   10.82835212558655
S           7.77910827539293   -8.07807947441813    9.56238037366772
C           6.69347364000769  -10.40790320700120   10.60561163792383
C           6.38489644865389  -10.98532109018839    9.36361669573766
C           6.63314490116120  -10.53476623078347    8.07004489851962
C           6.13181488802551  -11.35555447720455    7.07108791597200
C           5.47836553515223  -12.48097544216517    7.59963512907302
S           5.50433236207026  -12.50982652042968    9.31987524037057
C           4.91883588283401  -13.35787820486573    6.64470096324039
C           5.08909119561432  -12.98899231692089    5.30277284284496
Si          6.04690986032624  -11.38440470588488    5.20207070625875
C           5.06370963211279   -9.95883227872946    4.48719321097281
C           7.72473973489479  -11.55351645324345    4.38470589048095
C           4.49034997466511  -13.90964726639661    4.44348955809676
C           3.87147883657029  -14.96223251322300    5.08897048788853
S           4.03070837608982  -14.82459673624704    6.82628880907738
C           3.17104317307305  -16.04798079567295    4.50484954629543
C           2.53751565700756  -17.10121373508453    5.13151008154864
C           1.93099315134038  -18.00208715601680    4.25048048003308
C           2.11526589515354  -17.61365115716468    2.92299353013604
S           3.02219439462633  -16.16138394229967    2.76393912713204
C           1.53257668127732  -18.46312203808034    1.94339594373581
C           0.85243426950454  -19.57596547289117    2.43106213738975
Si          0.93458315409211  -19.58742197803863    4.30019102427460
C           1.89330398154692  -21.03793780485543    4.99935027285173
C          -0.73828540371292  -19.38796205149825    5.12083343719538
C           0.31569442532926  -20.33884773444921    1.37450421086299
C           0.58412641010396  -19.81704586677598    0.14683209745878
S           1.50967140550294  -18.36297810523111    0.22529361610357
H           5.57656411444895   -2.00864514877549   -8.16212116199095
H           5.52710259927734    0.42360136785612   -7.20269071460009
H           4.47338259045383    2.33748218258121   -4.11120290579526
H           4.98890468478890    2.22411015801702   -2.44412777516203
H           4.06307243521428    0.92429138224875   -3.16301324344203
H           8.72770607015959    1.60821045355449   -4.55389181281472
H           8.02644284534863    2.67197866794270   -3.35356834036368
H           7.51491382364891    2.78053608391805   -5.02208265397479
H           7.48662864479159    0.03518162964158   -0.72275049364164
H           8.14358857925578   -4.72865955416331   -0.30579117534354
H           6.65542483174600   -6.33077624627030    3.34616664379098
H           7.80075888066578   -7.51973602639705    3.92894366984366
H           7.43245267013043   -7.42507075148494    2.22135870431420
H          11.43273554768451   -5.77427138930752    2.33628600015257
H          10.52645111870977   -7.03619915263598    1.53033350384208
H          10.90167989790910   -7.18068983028712    3.23260507077995
H           9.59938779962365   -5.35136654875862    6.20855073866026
H           9.67654272191707   -1.82419707218724    7.90110566580586
H           9.70096972773519   -2.44616310484161   10.42774827035531
H           9.06713827765716   -4.38969430159012   11.99596042397116
H           8.28724148732037   -6.72597373606563   12.89296121494474
H           7.29384335682891   -9.10037518391260   13.00346474710762
H           6.41397062548529  -10.97409230888827   11.48480299205475
H           7.17084280353075   -9.63066920660594    7.85846872285174
H           4.91428172921387  -10.06977092402319    3.41513237068364
H           5.57034975341128   -9.00812399567936    4.64021913098153
H           4.07827478339918   -9.87125105616171    4.94033228012787
H           8.29983240889044  -12.38252853878408    4.79219013332212
H           8.32381534112436  -10.65448933634803    4.51530294480351
H           7.63482069011987  -11.72230254102714    3.31359062515200
H           4.49574721205369  -13.82518731464689    3.37061868199860
H           2.52247107400646  -17.20007575488196    6.20301288457392
H           2.86473537216093  -21.15554493719716    4.52341044107690
H           1.35657950631484  -21.97507105400047    4.86720078619756
H           2.07194764760721  -20.92264438977769    6.06643045433073
H          -1.29720490789090  -18.54737652254612    4.71455572363128
H          -0.64236433377280  -19.22066036128114    6.19164211133463
H          -1.35576423390754  -20.27461352285679    4.99260015628075
H          -0.25024642795243  -21.24238635846200    1.51795161461739
H           0.29596941112774  -20.19409858982159   -0.81488249937056
