98
 SCF done       -209.856152328970          0.000554875466
C          -1.13721378007204    0.71450868390450    5.01296271016109
C          -0.46787016965051   -0.05692302751945    4.09973349404154
C           0.72700949273004   -0.75409717157786    4.38008295710837
N           1.69642246440419   -1.34572824309488    4.54495033871921
C          -0.84653817807884   -0.25630698386091    2.75482468704152
N          -1.07977798721583   -0.45859094520027    1.64896005920659
C          -0.70974890839603    0.95528295394044    6.38751891100920
C          -1.61187266849215    1.86548144912842    6.99299178992821
C          -1.47847872346027    2.29421660813537    8.29145920692754
C          -0.40272242707023    1.79633356979442    9.03350379026448
C           0.49290389871962    0.88489973403915    8.42340293223103
C           0.35850358514531    0.45523927509192    7.10853994756881
S           1.74625284928249    0.39096582429929    9.51926827509852
C           1.06115271480602    1.40051846877691   10.76516257342292
C          -0.04969163851621    2.07458299215895   10.38177911674327
Br          1.87493572424005    1.46859261949563   12.45272615698701
C          -2.65454075068466    2.22637911165363    6.02155971216152
O          -3.57707555703348    3.00233115431993    6.20601703868831
C          -2.36569632675224    1.46225983833433    4.80226949215561
C          -3.16134871253638    1.41126125876131    3.68780942723158
C          -4.37336395162584    2.06368484128449    3.40717044645655
C          -5.08794856143495    1.80999476155546    2.22882033934942
C          -6.26289645883741    2.53189910362148    2.15607285825822
C          -6.44427676745709    3.36924959930614    3.28408981605893
S          -5.18781295642370    3.24630934917539    4.42813585049256
C          -7.67468723136865    4.04822010229929    3.12934627559797
C          -8.27798580011067    3.63947064404048    1.92086941807436
C          -7.39562121944561    2.69477238031338    1.25559773560684
C          -7.57787634344262    2.11464052935285    0.03628588343756
C          -6.64330938485578    1.20565147800742   -0.50593159575340
N          -5.88533062138798    0.46621786639027   -0.94462481293470
C          -8.68883069630913    2.40839953770700   -0.78596364641136
N          -9.56813466060328    2.66431899066061   -1.47467614424437
C          -9.52545106536250    4.21602921892497    1.71431249406946
C          -9.87305055121472    5.07908573253397    2.74242886644706
S          -8.62499685352537    5.17844703922717    3.98093708456472
C         -11.06393164627945    5.82880413696242    2.88031784312967
C         -11.23140575483726    6.97818265577137    3.78269817749684
N         -12.40312810538234    7.53102447959826    3.73311636916279
C         -13.11576417210459    6.79616096545465    2.82749137345841
C         -12.29098258780925    5.72059035362232    2.25899929960803
C         -13.08796642846855    4.91155647990519    1.36996890856368
S         -12.61703189411711    3.55038924924497    0.56887875174225
C         -14.39274074859374    5.52548278800860    1.39608711362708
C         -14.37260938695632    6.69026039296035    2.29500998056946
N         -15.60006778403497    7.28776472778105    2.35019499060597
C         -16.36237402264589    6.58413615608829    1.57360725187985
C         -15.69295134619823    5.43813065991729    0.93757600814070
C         -16.34252234242733    4.51153055337010    0.09214418625387
C         -15.82090300635444    3.36226114731399   -0.48482825069012
C         -16.77187738372059    2.67543919212387   -1.22840202787517
C         -18.03239145277593    3.31181308481123   -1.23479526809483
S         -18.04250062414652    4.74352450475294   -0.31300125742897
C         -18.92265142903274    2.54814295640130   -2.02512541542369
C         -18.22592848822227    1.42484966842887   -2.51779512253211
C         -16.85642592892983    1.46654324472321   -2.03226624184315
C         -15.87706873694906    0.55351493133481   -2.28738886965350
C         -14.58058766190742    0.63036097206567   -1.73223766319724
N         -13.53389729810386    0.65267744831297   -1.26683574091991
C         -16.12391707355559   -0.56224497487751   -3.11669585249649
N         -16.34683404553617   -1.46255279634245   -3.79094154100315
C         -19.01208506230297    0.61441374537394   -3.32418319760770
C         -20.30357754514342    1.10421164075211   -3.46182671525041
S         -20.54470400231732    2.58223770202142   -2.54153871568304
C         -21.38573892205870    0.53934515334333   -4.17425365614854
C         -21.34699595326537   -0.38197007368603   -5.17485593061972
C         -20.28386694026593   -0.88228305734218   -6.02318233083860
C         -19.18032638520958   -0.19158775767479   -6.45131405317534
C         -18.26343288761937   -0.68868250918896   -7.40204875366082
N         -17.49435177208730   -1.04080825263110   -8.17688501035711
C         -18.88418477826180    1.13184864322052   -6.07075865799775
N         -18.61987572816061    2.21725651126274   -5.80577312211240
C         -20.73678470815773   -2.15469949933455   -6.57386255932026
C         -22.11652809273646   -2.31283256474424   -6.28539107992125
C         -22.57875454133068   -1.16861515467108   -5.47810044277799
O         -23.69812092611384   -0.92904748549379   -5.09082726084823
C         -22.83623562811700   -3.40365486236931   -6.71016995315755
C         -22.16018224464194   -4.38732249969661   -7.43981768146875
C         -20.77774163755466   -4.22785330294653   -7.70501252553713
C         -20.05105057838632   -3.12085112271295   -7.28417744370552
S         -20.14027499981295   -5.56838295512035   -8.60513608594686
C         -21.71664557777989   -6.31357205596100   -8.61970364539194
C         -22.67293750537314   -5.59756583776489   -7.98099756666129
Br        -21.95066552343125   -7.96598764693943   -9.47330556915555
H          -2.18257576722125    2.98917055812802    8.72145549229920
H           1.06670069068763   -0.24158545867186    6.69290799760312
H          -0.59862451223217    2.74002807792411   11.02268763122263
H          -2.84445795555347    0.75260951181313    2.88807622270764
H          -4.73756040385242    1.11570174668341    1.48553378205874
H         -10.16479299176143    4.03259393887269    0.86973583840854
H         -10.46130113340217    7.36618987146432    4.42719983067848
H         -17.39677005181564    6.84536393146845    1.42884203672629
H         -14.79615782073807    3.06178176483377   -0.35014421823551
H         -18.68886113464975   -0.31215616577786   -3.76209231957793
H         -22.38162213500293    0.81654648521352   -3.84238748070597
H         -23.88716710685937   -3.49703227906521   -6.48592359980655
H         -18.99780059300065   -3.04418093991427   -7.49815828644679
H         -23.69772957413725   -5.90910912312312   -7.89381145886967
