102
 SCF done       -218.320517236947          0.000646070316
C          -2.72909128971403   -2.38729749123987    1.19283147891746
C          -2.08696133994367   -2.49437144913283    2.39939670270211
C          -1.19448584304452   -3.53625151939837    2.72793069978063
N          -0.46831045437076   -4.36284974596466    3.05514156803102
C          -2.19366566878002   -1.57043568493202    3.46042580085311
N          -2.21329977419169   -0.85191574477966    4.35613431831030
C          -2.54329833444978   -3.27331307173278    0.05133381760608
C          -3.25096179254877   -2.74068317960128   -1.05334127313756
C          -3.26900140379498   -3.34661402498890   -2.28603732847598
C          -2.55508176595716   -4.53986754208712   -2.43530365276708
C          -1.85468283050234   -5.06889354511344   -1.32421810087025
C          -1.83484656614367   -4.45365574183155   -0.07863289548089
S          -1.04932406581232   -6.55484295741467   -1.72594759175197
C          -1.65426109653446   -6.44649955746943   -3.35792042772883
C          -2.42026149975713   -5.35442805281063   -3.59241744099998
Br         -1.22101431939333   -7.78656733415120   -4.59566873497225
C          -3.93522816090266   -1.49637617707623   -0.65302313457646
O          -4.64045566992034   -0.81218006926663   -1.36248151040094
C          -3.64214225997732   -1.33102161110848    0.79228354013020
C          -4.27247064162063   -0.48322038454163    1.66038033795798
C          -5.10869023336106    0.61605218156981    1.37848054210683
C          -5.25518287744364    1.39752613183806    0.23988191594872
C          -6.20163731819800    2.39868382158413    0.41166926005608
C          -6.79464185213473    2.38850265396627    1.69321127985997
S          -6.15033064490649    1.17771912439189    2.69422280954305
C          -7.78520789656155    3.40144757115064    1.73888127136805
C          -7.81589495095212    4.05258133423711    0.49475654669858
C          -6.80100383650128    3.47060526537107   -0.36836177972295
C          -6.45924017378947    3.87863792500345   -1.62360175854391
C          -5.41954820807107    3.27940350305349   -2.36767494415001
N          -4.56561438039792    2.82301816163724   -2.98099443508581
C          -7.10575881168021    4.96520559474775   -2.25102466552116
N          -7.62618573521129    5.85340547888809   -2.75633417785541
C          -8.79425561116515    5.04409454524152    0.42681796851778
C          -9.51223605762772    5.15438016293118    1.60138833259609
S          -8.95866643425861    4.00926324185668    2.81257823923267
C         -10.60073827030716    6.06479888843910    1.88354808110236
C         -11.58371386296519    5.74363239904307    2.82474871639281
F         -11.47221437702200    4.54531892024934    3.44972393313260
C         -12.67069395805609    6.55307465530536    3.11726032845505
O         -13.64931648764906    6.28424108373311    4.01113310790413
C         -13.57581778477139    5.19998404697432    4.91566312406106
C         -12.80985498131007    7.77524669882214    2.41608736344647
C         -11.79568011871586    8.11982107633456    1.51008939113481
C         -10.70315639398921    7.31079533581671    1.21491959476533
O          -9.69847074344307    7.60434586022654    0.36751932044156
C          -9.71341822837948    8.74896821311502   -0.46877905066815
F         -11.87516675778003    9.33074583256255    0.91554865853117
C         -13.95707446017214    8.61852315148939    2.64891967747536
C         -14.38484304111553    9.71158404291551    1.91257139448642
C         -15.53440863541321   10.29367207534900    2.44332262830503
C         -15.98954147061736    9.63946491237968    3.59993076723381
S         -15.02082512441649    8.29861483712630    4.00910037474669
C         -17.15052687759930   10.30719174632158    4.06128718277100
C         -17.43380542044437   11.38084671468138    3.19391604243880
C         -16.42623508869066   11.40335221956703    2.14408558561764
C         -16.34751985881823   12.27208665358345    1.09643853146753
C         -15.33066335718276   12.19056893770488    0.12092457024775
N         -14.51487154880368   12.12633225696962   -0.68194465397814
C         -17.29161122293937   13.30371782384042    0.90457920910584
N         -18.05993579801648   14.13809690742185    0.73780989859085
C         -18.57180832205584   12.08669950422837    3.56687465758844
C         -19.14284766377680   11.59139229135365    4.73078547688100
S         -18.26890726951915   10.18297278202312    5.33478857598577
C         -20.33517728307578   12.06019408314246    5.32593824457492
C         -20.83950455279079   11.82292195127208    6.56782352585802
C         -20.24921217844857   11.29738759908562    7.78021325796467
C         -18.95441663930992   11.48057316223675    8.19229104341420
C         -18.45266602910089   11.02736093485300    9.42823982502117
N         -17.99510769952781   10.65713376154919   10.41365157664898
C         -18.01197804752794   12.22923206045133    7.45788949597561
N         -17.23520092155777   12.86830873681826    6.90469940705243
C         -21.34049152659053   10.81794090144059    8.62038256681984
C         -22.56710655707207   11.26624102262424    8.06732249020335
C         -22.29947073794052   11.99198565156987    6.80854078553107
O         -23.09241761197514   12.55549100655774    6.09144045950242
C         -23.77834174322482   11.01320221625892    8.66402459187870
C         -23.77901273802471   10.27444049063273    9.85221364224202
C         -22.54939018245283    9.81944899821994   10.38695770117806
C         -21.32271940069412   10.08342953005013    9.78997001516343
S         -22.78447364377077    8.91639545247503   11.85186895421698
C         -24.50672358744684    9.16358839271136   11.73299037285217
C         -24.88829085228551    9.88259118754324   10.65066051425808
Br        -25.63640878832711    8.44505902091095   13.04577283810745
H          -3.81648487459649   -2.91269491372896   -3.10793886071054
H          -1.29078194608252   -4.89857165154634    0.73763631278721
H          -2.87311469059570   -5.13117267007358   -4.54111389626619
H          -4.16185123185560   -0.69129400138136    2.71856018013764
H          -4.69447881202921    1.22944406152392   -0.66010688086288
H          -8.99512726258076    5.63888972777403   -0.44233424790132
H         -12.65283769601998    5.22299039142849    5.49817273857916
H         -13.66424566946537    4.24050610649045    4.40238835623522
H         -14.42777905868951    5.33504854862948    5.58027658560463
H         -10.61143111924161    8.78642577175203   -1.08775756273240
H          -8.83975764578171    8.63067315233620   -1.10827023974998
H          -9.62333076334669    9.67285644257712    0.10533909266522
H         -13.90049430044787   10.06930805173620    1.02488926757024
H         -18.96980079488982   12.94061320670323    3.04887271392005
H         -20.98742654798082   12.62551594614423    4.66624406667299
H         -24.69725418734846   11.37429372105999    8.22967964687088
H         -20.41003284157027    9.71385927152195   10.22781120365539
H         -25.90956291950880   10.12742099308720   10.42277514030468
