100
 SCF done       -206.704060834278          0.000961398293
C          -1.92907523153828   -0.10750470883146    1.98212242777326
C          -1.57068151912614   -0.19046326269868    0.66048440954272
C          -0.61820240477459   -1.10185628750186    0.15681254062160
N           0.13988936086994   -1.81929477938699   -0.32115273730311
C          -2.06009083334515    0.61476344631115   -0.38945817491104
N          -2.39050488174390    1.22828412970497   -1.30303571038813
C          -1.34512661929194   -0.90342311906343    3.05557608742852
C          -1.88538772560013   -0.46500403181767    4.28753050562484
C          -1.52902044081411   -1.01219366023536    5.49588723057840
C          -0.59205166422956   -2.05009625479222    5.48839573259327
C          -0.06044852582318   -2.48881999444983    4.25180676168562
C          -0.42041286800513   -1.93181033342713    3.03095219453516
S           1.07347784991684   -3.78736207340322    4.46963781685162
C           0.82395048831462   -3.72141156571195    6.19434261664339
C          -0.06334439241937   -2.77758994730877    6.58925497327396
Br          1.75437052948639   -4.90767423398842    7.30927267323822
C          -2.85406249238936    0.62042521710383    4.04638278428786
O          -3.49200779224783    1.19549521758548    4.90225882319112
C          -2.89881108389789    0.80018152071877    2.57576164424914
C          -3.76242225780221    1.57294468044045    1.84599758233346
C          -4.73784473966480    2.50581872538835    2.24507216980650
C          -5.04761237248560    3.08931460729077    3.46882016091640
C          -6.12933851899070    3.95204568321775    3.37871264376267
C          -6.66418173847256    4.04364509640680    2.07265458979028
S          -5.81098153717142    3.08831073149879    0.95843979225456
C          -7.80259185731582    4.88310610179082    2.10526702258427
C          -7.99247148528461    5.32145137091629    3.43013579808055
C          -6.92907558144830    4.78422866134401    4.26495336992300
C          -6.71077181746105    5.03359872090671    5.58678534765481
C          -5.61248094630485    4.50449874400378    6.30036837770339
N          -4.72325523204293    4.10912019805334    6.90574408473189
C          -7.55268693967917    5.87782081296498    6.34359685861331
N          -8.22356600653361    6.56383744202843    6.97108755100135
C          -9.13378453390071    6.10530923449318    3.57788153051345
C          -9.80392792372335    6.27052267125929    2.37632857781868
S          -9.00108777306015    5.47241112026842    1.03777353622140
C         -11.03981438562855    6.94303138152224    2.12221470420758
C         -11.90675478342504    7.43286108958855    3.09096146127648
F         -11.59471959524136    7.34483336440120    4.39391303541473
C         -13.14651368654593    8.00581986723984    2.78743171462504
F         -13.86836436796392    8.41984229264161    3.84702106592696
C         -13.64545088793010    8.17184394837968    1.49735126454488
C         -12.75570402226484    7.72976848768116    0.47443555773740
C         -11.49718370984856    7.11385529137595    0.79072361456760
N         -10.84341372154311    6.73983225252459   -0.30142245874640
S         -11.70369611660632    7.13548191577668   -1.61321441572241
N         -12.94705749973396    7.78187125668890   -0.84001296608302
C         -14.95726650823594    8.70279777485951    1.20180612192020
C         -15.28774674547987    9.16315832709192   -0.05612522345692
C         -16.53737647712784    9.64131020273172   -0.43628614523258
C         -17.63160082972003    9.73395114679826    0.53083086331573
C         -17.53094353416505    9.33534524506994    1.82183147777472
S         -16.11718386231331    8.68450341676159    2.51507865636236
C         -18.72361910789011   10.32065728265646   -0.16317495292801
C         -18.34545706877142   10.59516425408511   -1.47636800176255
C         -19.39240625654031   11.18216378816806   -2.21981497346183
C         -20.51174824038567   11.33668452181047   -1.46471885831318
S         -20.34631284971631   10.77887037270841    0.16584363645353
C         -16.98417934874840   10.16381724417102   -1.68202314200909
C         -16.34115345603850   10.31280081087860   -2.91932368465113
C         -15.14951398707882    9.77961293240278   -3.34841598278496
C         -14.62338329015461   10.12570886966862   -4.59672008467972
C         -13.42467183996881    9.67234256979799   -5.11119244471800
C         -12.79063303672071   10.09809547583500   -6.33973183739821
C         -13.31508605047835   10.92336488761198   -7.30342709752718
C         -12.63340139460059   11.29710762626078   -8.47947816715439
N         -12.13544565102803   11.64152709707420   -9.45526618167966
C         -14.60069771159451   11.50023106528389   -7.27714287764224
N         -15.63229584186778   12.00314377289251   -7.33238470124059
C         -11.46746493839874    9.47856881445114   -6.39108595070475
C         -11.31825436908749    8.64109139220047   -5.24723667982994
C         -12.54653906578811    8.70952012030831   -4.44691891294665
O         -12.79499961365945    8.06342862975785   -3.43152972592573
C         -10.17539584597369    7.93105063417986   -5.01551565513038
C          -9.10368079046122    8.03359230610902   -5.93133853835994
C          -9.24447400082922    8.86829930762712   -7.07668274429657
C         -10.44444939885230    9.58734267850674   -7.29280740312971
C          -8.16985969192927    8.96366854487663   -7.98266194040189
C          -7.00975492535752    8.26879385757263   -7.76897285696592
C          -6.87200448141957    7.44784891494380   -6.64054638190275
C          -7.89723413233807    7.33253227873059   -5.74066131843157
H          -1.95948914970694   -0.64839793391992    6.41562016225646
H           0.01241623591588   -2.30575813130687    2.11852482378212
H          -0.33591324211751   -2.60039574045778    7.61359475334991
H          -3.72634565408943    1.43818885948641    0.77115636534867
H          -4.50671426256532    2.86180402702167    4.36952626638570
H          -9.46503545664977    6.52982335622122    4.50719551169584
H         -14.49416035185662    9.14269792384952   -0.78521046592093
H         -18.35504270043143    9.41490943879284    2.51368490088446
H         -19.33086030736093   11.47597476024697   -3.25171796971162
H         -21.45321754981820   11.75306598125914   -1.76541003881376
H         -16.88395546625992   10.92227213174186   -3.63494295938841
H         -14.60104952186523    9.07730117567157   -2.74347581746464
H         -15.18378143169410   10.84616695280838   -5.17872927260459
H         -10.08309929560997    7.29981035170013   -4.14306284936304
H         -10.51742620435933   10.21099094737359   -8.16937520800822
H          -8.28048095818247    9.59709509406615   -8.85053169349523
H          -6.19218376639789    8.34874097590740   -8.46956355371431
H          -5.95040016143384    6.90683207797210   -6.48699220903583
H          -7.79688213097790    6.70168055452241   -4.86940320492028
