118
 SCF done       -239.257594937801          0.000779517274
C          -0.75265640431287    1.37399340977181    1.00536826709694
C          -0.09863583334046    1.77112580428148    2.14332124403982
C           1.20796603541795    1.36364414099475    2.48516353936856
N           2.26857978384841    1.07339236282950    2.81457072085273
C          -0.64060424935176    2.59852049888220    3.14951419991362
N          -1.01802434646289    3.24617348017847    4.01966913408188
C          -0.23979602605876    0.42851635708860    0.02245146953484
C          -1.26697213503610    0.14505562062690   -0.90967277018107
C          -1.09715181155298   -0.72319490583374   -1.96054887633328
C           0.15001183405900   -1.34072134444744   -2.09985319512829
C           1.17382520599787   -1.04686225916162   -1.16708913942520
C           1.00022782056253   -0.17016295915736   -0.10338710272376
S           2.63623677734586   -1.91157404866077   -1.53008773561834
C           1.86323983252534   -2.64780163087298   -2.90906760301768
C           0.57636468433649   -2.26676550011826   -3.09062362701761
Br          2.82907811808403   -3.84695055551084   -3.97914689774914
C          -2.47627702654392    0.91827170662118   -0.56700628647835
O          -3.52264770300442    0.90897195426442   -1.17882227797359
C          -2.10247214602147    1.73845520349648    0.61088804904998
C          -2.79897109040404    2.79034364233082    1.14035374820955
C          -4.12969202527128    3.19593576883846    0.92030803540391
C          -5.22760809041523    2.53854653306381    0.37880529484244
C          -6.37103351672839    3.32496131407395    0.40028673739439
C          -6.15427686843207    4.60634567419867    0.95519834978897
S          -4.55561073979084    4.82018387045959    1.48375081687510
C          -7.36502388502348    5.33783481069695    0.88368061480740
C          -8.34787389730772    4.52350941669200    0.29790841762521
C          -7.76370627215473    3.22638540459759   -0.00774310129030
C          -8.40164379906430    2.14513277445188   -0.53976471977823
C          -7.76376804081615    0.90458086602435   -0.75863324980871
N          -7.27778782023309   -0.11946556734431   -0.92736039317861
C          -9.76952998455380    2.19016964354692   -0.88378659112781
N         -10.88189332870855    2.23372941239613   -1.15933710371269
C          -9.57710102289590    5.17139650264478    0.16614533744726
C          -9.54046844686133    6.47010987483131    0.63585299986011
S          -7.95672463977315    6.89287493248146    1.26357694493728
C         -10.59933003960963    7.44651668062981    0.62757488999193
C         -10.33099558048297    8.78648570070744    0.93561129280778
C         -11.30452654426277    9.76324379385387    0.88092828702447
C         -12.59694040461620    9.41372966359031    0.50439544426399
C         -12.87732754068189    8.04759888993455    0.25902677242397
C         -11.91266847276962    7.06993013433488    0.30283346415136
N         -14.22262248595300    7.89590240809958    0.00103329967564
C         -14.88101064008767    6.65327706088656   -0.29688635270635
C         -14.88030190758618    9.09491305760253    0.10140668385518
O         -16.07186772955004    9.21651916388982   -0.08580568991989
C         -13.83870255548161   10.14087144933132    0.38480999321988
C         -14.07360295734333   11.48888055891252    0.38303151750436
C         -13.01443107463034   12.53250402491166    0.15989621610695
O         -11.81763914238479   12.40511673866550    0.01504584929549
N         -13.65886657627712   13.73797016628605    0.05663819097844
C         -12.98007777737540   14.98144227700019   -0.18729434445069
C         -15.01495159292455   13.59012605178589    0.25033076888306
C         -15.31618005883529   12.22118105887822    0.45192542964538
C         -16.62964194923091   11.87412357763267    0.75111103776155
C         -17.59706092544421   12.85846412953849    0.78440918615694
C         -17.30228612739552   14.20422761301227    0.53013285171914
C         -15.97220479334135   14.57506515622133    0.27417268847078
C         -18.34440004051714   15.19825303051661    0.53262725595741
C         -18.25646414201969   16.51881305449259    0.13512699699351
C         -19.47051524068478   17.19393309525027    0.26237228014671
C         -20.49653889317707   16.37879443761062    0.76682592818095
S         -19.96247926727644   14.78740582160465    1.07477422775466
C         -21.67819945582394   17.15447344482864    0.86709523448222
C         -21.40087705806863   18.45946909944411    0.41217757566103
C         -20.00290046767480   18.52586067282222    0.01978679576357
C         -19.32827297499514   19.60496436514521   -0.47040758008717
C         -17.95836029311175   19.53790886812310   -0.80107360955971
N         -16.84455433694038   19.47668107006307   -1.06695066287963
C         -19.95310524141405   20.85197137280731   -0.68498770626993
N         -20.45715404602888   21.86420263923572   -0.87313359174733
C         -22.50996643261008   19.29578938936265    0.46638922796031
C         -23.62282463076998   18.66211887773110    0.99869890414965
S         -23.28943622045439   16.97118946924446    1.37771978660731
C         -24.90420610255454   19.23940436021261    1.14863105287025
C         -25.95520857789531   18.83594967509853    1.91270570192243
C         -26.06173218662699   17.90924126573426    3.01962769847744
C         -25.09851399729951   17.66722016675563    3.96493115770743
C         -25.29043244104164   16.83283565985272    5.08404030875818
N         -25.39582142278155   16.14834099341991    5.99920850532273
C         -23.84383854915108   18.31020265120166    3.96956173990249
N         -22.83143709580767   18.84920105235731    4.02452546327992
C         -27.46502301787949   17.52885401368897    3.13174712544067
C         -28.23323878964764   18.38538296801933    2.30230802279324
C         -27.32980712972299   19.29706732829904    1.57133169577187
O         -27.62686993402391   20.19145747606248    0.81463312042326
C         -29.60318991278753   18.30839917466476    2.23495278586735
C         -30.24100721628586   17.33310667747477    3.00917248118855
C         -29.46218444737854   16.47167610120362    3.81942058645367
C         -28.07743160866926   16.55638276036932    3.89788931033081
S         -30.45320512797309   15.33341560618615    4.67878962747183
C         -31.88150040224636   16.02286977063057    3.95382380880458
C         -31.63105012771676   17.05185818783577    3.10973025857970
Br        -33.56622270333139   15.31760655927846    4.37823804775827
H          -1.90186856040239   -0.92009792896652   -2.65134519348196
H           1.81226955788445    0.02455929081930    0.57692076196011
H          -0.04784269531755   -2.62226500524492   -3.88994327460302
H          -2.25455524359409    3.44158881429961    1.81478202108594
H          -5.17222074866311    1.53961423307248   -0.01207273957888
H         -10.44890071212279    4.72192104992156   -0.27098878001105
H          -9.32454383205024    9.06699406426198    1.20951594174094
H         -11.05145185769803   10.78345752245740    1.10707848204755
H         -12.16171734883281    6.04082530950034    0.10468454540663
H         -14.45772192981646    6.20273286354491   -1.19637924455983
H         -15.93463633655566    6.87442573316820   -0.46367076923952
H         -14.78401424584570    5.95489870152168    0.53703631716558
H         -11.92124835693078   14.75617830478854   -0.30894339487907
H         -13.11193477640616   15.66477502506325    0.65412624299548
H         -13.35799381715223   15.45133713847214   -1.09695714277560
H         -16.90106581513798   10.84998627726658    0.93516038964942
H         -18.61812566672171   12.58117594542497    1.00185154054412
H         -15.70384694694271   15.60576700736149    0.11418464824167
H         -17.35724205603673   16.96859180101981   -0.24186623931297
H         -22.52221359077492   20.32909768773694    0.16970674434397
H         -25.10531234847365   20.08961714350295    0.50283186618321
H         -30.16648695896662   18.97956866296088    1.60593947683910
H         -27.52209666524150   15.87817461026156    4.52469191076435
H         -32.39380157800025   17.59132300219180    2.57863560184494
