106
 SCF done       -216.393592360787          0.000864493913
C          -2.26848499149749   -2.77894968517817    0.76589598495606
C          -2.82529851658596   -3.79694893610280    0.03426320300159
C          -2.20322274778040   -5.04429831946570   -0.18402304521988
N          -1.75566811643594   -6.08071233127753   -0.39201431670140
C          -4.06526567017963   -3.74485981314985   -0.63664529110844
N          -5.04906442403891   -3.77538276962907   -1.22900180722907
C          -0.93843223837437   -2.80029618533839    1.36095479448259
C          -0.66332674229363   -1.51996164896438    1.89878240988978
C           0.52197780007997   -1.21501250836282    2.52256125469392
C           1.48478655554516   -2.22478654125321    2.62036611386180
C           1.20068400175697   -3.50336618105749    2.08262496039277
C           0.00147311108711   -3.81044370850204    1.45207368308073
S           2.52521009776692   -4.60313018231809    2.31512711730571
C           3.43109110706755   -3.34822515540132    3.11858406701385
C           2.77692453026619   -2.16579780040028    3.20996143994877
Br          5.15281763424478   -3.71895714786151    3.76183988798892
C          -1.82036615998172   -0.63095306350093    1.68034105232737
O          -1.90674576765278    0.52374574924297    2.03928652907786
C          -2.84382296374596   -1.46687795067154    1.00758953087141
C          -4.15568978017390   -1.15238641542555    0.77639257218223
C          -4.82356886238810    0.08537077175861    0.83628576951859
C          -4.36444416157093    1.39586075975495    0.90270688570240
C          -5.39975075509487    2.31768323011150    0.84149250978875
C          -6.67539606506204    1.71481448930607    0.74068784431333
S          -6.58865771504240    0.01956986170886    0.69610443415564
C          -7.65094131070673    2.73506318784907    0.68632612950330
C          -7.00523992289051    3.98378630249388    0.73824666719881
C          -5.56826675077030    3.76155034386509    0.83722668867134
C          -4.59414128180276    4.71302437052817    0.89165562809171
C          -3.21649904803343    4.40462296908318    0.93693162723351
N          -2.09131730272048    4.18793542308221    0.95037515258114
C          -4.89863442584983    6.09178440879327    0.88776177266374
N          -5.14807583320882    7.21061818262342    0.89009163478765
C          -7.88925762982617    5.05731779953456    0.65793149601982
C          -9.20606358674585    4.63577642741764    0.55185862056462
S          -9.34825027957776    2.88656355548922    0.55520993018799
C         -10.36273479567410    5.44632754739106    0.42286116799514
C         -10.41644868942678    6.81710708288514    0.23266401005182
C         -11.72735820054925    7.27432506579423    0.11111024353328
C         -12.68382367894831    6.24615824436189    0.22141504232155
S         -11.96401601364336    4.71869123968162    0.46437780607140
C         -13.97684127200003    6.80134435455712    0.07258856934708
C         -13.83740062898123    8.18759680903922   -0.14574824548723
C         -12.42273401359035    8.52855830419829   -0.12259741904752
C         -11.87765283584183    9.76721752471336   -0.29259309892849
C         -10.48487889733245    9.99024059501853   -0.25966679844036
N          -9.35318300169745   10.17065653732856   -0.23734490532198
C         -12.68545519700358   10.90164160797887   -0.51649901565965
N         -13.35413671418131   11.81396008344965   -0.70557604247329
C         -15.05405707326245    8.82826372977659   -0.33228196665880
C         -16.13011692210439    7.95286622853047   -0.24508438097260
S         -15.60991525811332    6.30094224499980    0.07205169369038
C         -17.48813470999040    8.29460078609291   -0.38774236029858
C         -18.49667518745809    7.37047111196019   -0.22630818694409
C         -19.83880662498622    7.85584846299692   -0.37229452267004
O         -20.88777920560583    7.01557461598468   -0.36498150611968
C         -20.55708927295330    5.63570112500956   -0.38366799201442
C         -19.37017828749873    5.36158045809431    0.53204668529813
O         -18.23832094477689    6.07233909516906    0.07048895076313
C         -19.96336883861804    9.22249839707914   -0.60064029593610
Si        -18.24783805636093    9.98276113405385   -0.71525738876468
C         -17.92403567585055   11.19253273393371    0.67114895902353
C         -17.85795409855345   10.63220727410271   -2.42650623516473
C         -21.16286592629521    9.92182722072499   -0.76717873856434
C         -22.46673896350535    9.62229081180227   -0.43370039444141
C         -23.55248839999335   10.36301762443864   -1.11851692056827
O         -23.44094193367249   11.33478320720726   -1.83033862049135
C         -24.80127213518597    9.63508325922350   -0.77571240798727
C         -24.49217731705364    8.60100270862386    0.12556676506650
C         -25.48881763943809    7.74587298293226    0.56238712419662
C         -26.79306211464884    7.93402415883070    0.10570189107011
C         -27.09141340908718    8.97614861415864   -0.78596859576166
C         -26.08388700919701    9.84032318395206   -1.23075406204339
C         -28.41393129278692    9.20851492388867   -1.24166156012404
N         -29.44717492214096    9.49947248981650   -1.64020653541602
C         -27.89613584121761    6.99525162515915    0.49834279903982
O         -28.80833081607562    6.73961436156223   -0.23427773855858
O         -27.80346675876634    6.44401953457157    1.71558203555572
C         -23.06265772414849    8.66508113672728    0.44471954075955
C         -22.48104504968264    8.05530688330884    1.53569036409004
C         -21.18468232506751    8.34723633577638    1.98715127331895
N         -20.12317580932105    8.55581316381931    2.37538891204431
C         -23.14565189989148    7.13042731205065    2.35927992173768
N         -23.64630659279125    6.34882452318957    3.03726285705489
H           0.70037490157197   -0.22796036664426    2.91935158241442
H          -0.16797783410520   -4.80051180515422    1.06342100440878
H           3.18687602052615   -1.28732405019123    3.67376542279142
H          -4.80631638978054   -1.97577938791325    0.50476311488782
H          -3.32190484084708    1.63960640918388    0.99433912713812
H          -7.60383581832610    6.09254649313800    0.67858152215047
H          -9.54189485547918    7.43812152708223    0.17347126154181
H         -15.18634575992415    9.87623130918594   -0.52336080944088
H         -20.31133252479669    5.33669374404650   -1.41072309514792
H         -21.44862263996833    5.10194321239006   -0.05050953187283
H         -19.09883498745430    4.30563038892577    0.52502244406065
H         -19.61113854321533    5.67730313219369    1.55579425308643
H         -18.15780886531240   10.75927970845559    1.64307099008599
H         -18.53254340888859   12.08930628178481    0.56819631003899
H         -16.88656902836318   11.52021669392559    0.70292719817113
H         -17.98758109075479    9.87827636464595   -3.20159787219675
H         -16.83266285359137   10.99009158182749   -2.49708846972644
H         -18.49906212426682   11.47121186168880   -2.68938026613060
H         -21.06913234018365   10.86152196752518   -1.30452719410866
H         -25.25458018389790    6.91469372592904    1.21089823161323
H         -26.30751006628604   10.64368608376315   -1.91602243911556
H         -27.03829058212217    6.73983517773507    2.22804360728865
