105
 SCF done       -214.446470022902          0.000650529372
C          -0.91501849136185    1.71904727039240    5.24526959196018
C          -0.45701707188789    0.44149720210059    5.05769200651260
C           0.77667330453553   -0.03534595755970    5.55058975023631
N           1.76422392005898   -0.48283656554695    5.92693075525330
C          -1.12094509709898   -0.57165055203284    4.33354692982124
N          -1.59115294884525   -1.44377622458173    3.75310860456259
C          -0.19780392845235    2.77853547688576    5.94705613288017
C          -0.94952220431358    3.97677787418024    5.85491579036318
C          -0.53674171920178    5.16023641342104    6.41760377158120
C           0.67886200969454    5.16243607521642    7.10899309331998
C           1.42414965162636    3.96167954444544    7.19808459408396
C           1.00585905248651    2.76581709179873    6.62671765034427
S           2.89186924891034    4.18651271548995    8.09834276085490
C           2.49220455224056    5.86678720314050    8.33944047667079
C           1.31894447318933    6.24207089497032    7.77562246271355
Br          3.65845023657603    6.96459581859550    9.31358323902466
C          -2.17886330672813    3.71525768103668    5.09268479766668
O          -3.04103636828891    4.52926638544547    4.80738857956339
C          -2.16235761254253    2.28600406418164    4.76066885880471
C          -3.18555563868749    1.59819351440866    4.16351907731196
C          -4.41989526675904    2.05482692990040    3.67185161060520
C          -5.37577409301034    1.17135557199650    3.15578193929796
C          -6.51460718606668    1.82000760082335    2.71915228252718
C          -6.42683790389970    3.22353728310662    2.88319657991432
S          -4.96628675977289    3.72940900602934    3.59816934243056
C          -7.63357903893072    3.79288962881626    2.40795786457180
C          -8.47922061248462    2.76396737012593    1.95235672830642
C          -7.80376730277862    1.48902088094138    2.13271407406123
C          -8.28652765028415    0.25218365194835    1.82358792633031
C          -7.54572124018110   -0.92679325139125    2.05527343674189
N          -6.95292696634707   -1.88950490223331    2.24313657460890
C          -9.56655238003902    0.07267518805005    1.25702696559882
N         -10.60711410128870   -0.06722455942705    0.79654085296134
C          -9.69801732306412    3.23485220990317    1.47102688816880
C          -9.78536951700282    4.61448292051289    1.54985545691156
S          -8.33774744243229    5.33923118431095    2.23209948753273
C         -10.87934286427196    5.42371078606190    1.15306397546525
C         -10.95642672377589    6.80681513215757    1.15406454278027
C         -12.19134545003456    7.25737748660678    0.69352091035925
C         -13.06352863952635    6.20738495312731    0.34665091048945
S         -12.35786456219593    4.67006560553587    0.57824402208472
C         -14.28917944602623    6.75528139431307   -0.10262476167850
C         -14.18261818702409    8.16431656587351   -0.04735798390263
C         -12.86589148897255    8.52403953723105    0.44846938633715
C         -12.37601812928397    9.78346092324531    0.63525435903021
C         -11.07458975346561   10.01207944382926    1.13045157210036
N         -10.01462189252748   10.18768025064756    1.52992508154227
C         -13.13897963634620   10.93037495336900    0.32262002938051
N         -13.76083743113140   11.85382926112340    0.04871129648687
C         -15.33930089983619    8.80744572902763   -0.46096513802665
C         -16.33149659172999    7.90498884104700   -0.82181814990757
S         -15.80563759817303    6.23294299621667   -0.67524108044209
C         -17.62492524049154    8.16322141553785   -1.32107311650766
N         -18.33231318143958    7.20698292730544   -1.91021674764475
C         -19.45034630246331    7.80036288220663   -2.36211101623219
C         -19.45325613312308    9.24051314374090   -2.04537739686185
C         -20.70557295048147    9.87479518747814   -2.50746202609601
O         -21.05663340431866   11.02459343970889   -2.38415302035683
C         -21.41697587820784    8.74367024874876   -3.13073523610379
C         -20.61950786159267    7.50200055925446   -3.01910371055264
N         -21.28311952028306    6.45653464297157   -3.56652406724565
C         -22.41694532104406    6.95756732148160   -3.99560749830973
C         -22.56929287750311    8.37647707199351   -3.74840349105630
C         -18.30629067731624    9.48099000082236   -1.34342330415616
C         -17.84256976086229   10.67309556297612   -0.70528003120180
C         -18.00269319381213   11.91705023587560   -1.20847079373358
C         -17.45057229302248   13.03923165170362   -0.53325533123972
C         -17.35432735544188   14.29277012412469   -1.05022360793092
C         -16.80964225036394   15.46662156953776   -0.38656751963572
C         -16.15288719383749   15.49687820457958    0.81538338647733
C         -15.62682475107666   16.67076764246916    1.39617182259122
N         -15.18226619510465   17.58765847805612    1.92490290011032
C         -15.88901551808838   14.38395734673064    1.64260215734470
N         -15.63757703908562   13.53922483893918    2.37920604471522
C         -17.05328633520162   16.61483643351494   -1.25218280474463
C         -17.65919525636596   16.15892508033464   -2.45820645439227
C         -17.82426420492044   14.69617053650183   -2.40599879978540
O         -18.22997959059457   13.97878091494559   -3.29308687905002
C         -18.00178476406278   17.01547481733691   -3.46415886943898
C         -17.75585002660233   18.39725013528868   -3.30617395253653
C         -17.15477033480876   18.86362638073313   -2.10124541705917
C         -16.80697411911639   17.95201098387174   -1.07853838858039
C         -16.91656438588189   20.24553813933387   -1.95320751475265
C         -17.25462549958737   21.12457356066517   -2.94563793133073
C         -17.84607912890014   20.66374919703019   -4.13159866144721
C         -18.09103013331502   19.32907487216684   -4.30806184569291
H          -1.13275787027180    6.05478827698335    6.32797616012485
H           1.60915514291815    1.87925852170165    6.72623958488786
H           0.92001267329684    7.23856319058225    7.82760322370205
H          -3.06005243878102    0.52767732540737    4.05395290210372
H          -5.21290855933223    0.10862796068030    3.11919172494815
H         -10.48957487976958    2.62233337879592    1.07800112102346
H         -10.14481592455699    7.43599658283429    1.47314482337654
H         -15.44895361443739    9.87263690931703   -0.53995843043238
H         -23.13860625288664    6.32539210363758   -4.48331191283590
H         -23.42201586392786    8.96871323466944   -4.01513451585766
H         -17.31168242599162   10.54586809828719    0.23149681298253
H         -18.50270079759790   12.07080537452686   -2.15315823386912
H         -17.06867452634978   12.85438066346060    0.46309290719778
H         -18.45822532699561   16.64171559289270   -4.36871476188977
H         -16.35668768919460   18.33817236783434   -0.17789957657826
H         -16.46029289937658   20.59582140516191   -1.03895116936228
H         -17.06825035466648   22.18094513449591   -2.82260860047297
H         -18.10676093789147   21.37166991821983   -4.90413712751925
H         -18.54627675845036   18.96774191328921   -5.21859171557335
