115
 SCF done       -221.664274698539          0.000663600666
C          -2.79100375486505   -2.24080900654442   -0.37299060209175
C          -1.57414784248266   -2.22084395165391    0.25806514973845
C          -0.57228236014496   -3.19684958969634    0.07199441596510
N           0.28083208871502   -3.95722263814818   -0.03602143441412
C          -1.14714145303424   -1.25441322168355    1.19309949626043
N          -0.72826400437986   -0.51678156749573    1.96721268599273
C          -3.24201355760119   -3.27592006533345   -1.29861344469668
C          -4.58042477456570   -2.99971366733479   -1.67326215394609
C          -5.29152925305880   -3.79646896973888   -2.53715732401195
C          -4.64831197573616   -4.92161239965519   -3.06323638410302
C          -3.31007962748623   -5.18905540269274   -2.68771467683582
C          -2.59328627021706   -4.38387152031291   -1.81038955491466
S          -2.70505454077811   -6.62355441296087   -3.45794554281354
C          -4.23637452147793   -6.84238504068074   -4.26261831184316
C          -5.15537622510743   -5.89119145483491   -3.97068706770761
Br         -4.47665204199576   -8.30364633799396   -5.41281064554221
C          -5.02130349146558   -1.76597509113205   -1.00361109069212
O          -6.12328705134282   -1.25035472183567   -1.09356777338756
C          -3.87429467651907   -1.28549835181146   -0.22791833021731
C          -3.82016361733223   -0.10132029728065    0.46306401437656
C          -4.80143869777763    0.88117824873063    0.65823824418570
C          -4.53061560337738    2.06252459286913    1.36122216415456
C          -5.63158121762874    2.89060441580206    1.45119578263111
C          -6.77220672931682    2.33490031392739    0.82080084776659
S          -6.47650767407708    0.81853674541739    0.10481327550362
C          -7.84138625467658    3.24736991039920    0.97689346414765
C          -7.39095767604496    4.37102592566769    1.69438932872372
C          -5.98390689563039    4.18477226160379    2.01401727565570
C          -5.17108270428430    5.04379776748951    2.69190236279052
C          -3.80941550140209    4.76087026084616    2.93275936836111
N          -2.70150166748320    4.54131318269293    3.12787200204803
C          -5.63669892081763    6.27726459664424    3.19538515767869
N          -6.01082304251840    7.28108522090790    3.60327244348744
C          -8.38654835569501    5.32325891895525    1.90197234936051
C          -9.59722634069753    4.93157401164116    1.35193564706464
S          -9.49497840008950    3.36672784415155    0.56268448776782
C         -10.82733259549500    5.63733406819807    1.39309596055885
C         -11.06220007665722    6.89008691844599    1.93578708458084
C         -12.40173744318722    7.25991847901145    1.83039637752342
C         -13.19469619566669    6.28236435721779    1.20404476301772
S         -12.28912600983805    4.91498768807123    0.73488811940405
C         -14.53927415713783    6.73109834738550    1.18853791799667
C         -14.59751837914851    7.99311376568239    1.80087254262425
C         -13.25713833560930    8.37463882629435    2.21423041720720
C         -12.88162244823275    9.52839265545012    2.83519936739936
C         -11.53936050826964    9.79141329832535    3.18347637710175
N         -10.44916434833132   10.00838145333966    3.46338381078956
C         -13.80815154096631   10.53854445886813    3.17229227699216
N         -14.55304657967174   11.36273509993184    3.45486280632446
C         -15.89561231749224    8.49943972319606    1.87003854565604
C         -16.82232110737857    7.64505924730935    1.30530210075772
S         -16.07507785826691    6.18441278479799    0.67834264506126
C         -18.23466010987197    7.84107868339232    1.31326717254430
C         -19.22308036567993    7.19500407392233    0.59554860977716
C         -20.54817847874878    7.56096462438718    1.02467641789394
C         -20.50909822198293    8.50532022312056    2.08213034208774
S         -18.87239974934882    8.91055995873749    2.52709549952605
C         -21.62442447780505    9.05084842788964    2.68998328702426
C         -21.49806410029739   10.08255040354578    3.76933435631251
C         -21.54473484617037   11.49132731624770    3.17425797297904
C         -22.86329438347412    8.63166273083107    2.19704219352686
C         -22.91059577462307    7.71671886473310    1.11994404655512
C         -21.79058779220857    7.17636188168842    0.50337326087883
C         -21.97868829808226    6.23218174472529   -0.64581805608974
C         -22.15096002359872    4.78872955873988   -0.16681400769760
S         -24.56040056359807    7.37169573345036    0.66634586964443
C         -25.14851738353152    8.43303928715543    1.89768225550794
C         -24.17109330316982    9.02079206998391    2.61587720537171
C         -18.94940237052455    6.24960539860315   -0.45468381062181
C         -18.13641860924174    6.46569427859287   -1.52033409899791
C         -17.87441364686979    5.52803881762578   -2.59904376509894
C         -18.05436426951749    4.17145235035815   -2.55010089754724
C         -17.75820828803969    3.29915801233951   -3.61808090097056
N         -17.54055833147457    2.54568065265700   -4.45618731136167
C         -18.51934904540644    3.46823505789028   -1.41919584732450
N         -18.87753000063140    2.83765573562997   -0.52872158139650
C         -17.32145996959275    6.28445605529539   -3.71369218639136
C         -17.12159383866828    7.63177418375413   -3.29455522961407
C         -17.55134001193719    7.78147579541106   -1.89403063344199
O         -17.45851999560094    8.77350025372374   -1.20238382528586
C         -16.61288411153075    8.57941369405004   -4.13510822946774
C         -16.28411499151076    8.21922358625817   -5.46134226558998
C         -16.48990889375718    6.87605889700661   -5.89080987893481
C         -17.01074156109312    5.91395192680403   -4.99536857962146
C         -16.16910410458525    6.53163536623785   -7.21959608559824
C         -15.66893472737584    7.46708874119005   -8.08408050369864
C         -15.46522438654421    8.78861704629858   -7.65976020365959
C         -15.76506311448309    9.15635534311983   -6.37597760004724
H          -6.31024962720629   -3.55866026265077   -2.80030069414345
H          -1.57572263309833   -4.63113772150438   -1.55891367912709
H          -6.14963846744010   -5.87228335378346   -4.37811960144301
H          -2.87634937405078    0.14847766997069    0.93273641384352
H          -3.55959440381032    2.27164467330654    1.77438165590333
H          -8.25094694257956    6.24934313975871    2.42886703573757
H         -10.29311354536012    7.49109928427765    2.38419579089152
H         -16.16901474093542    9.44560933599047    2.30107529375917
H         -20.54751997103469    9.94375936172593    4.28937276736729
H         -22.30435931905361    9.96315428589569    4.49435339824692
H         -20.72895316357550   11.62848263804985    2.46849041217436
H         -21.45031870411461   12.23547570898745    3.96078177021562
H         -22.48418345096722   11.65320374134918    2.65040617654194
H         -21.13525555324889    6.30962968591696   -1.33453672888278
H         -22.88060094480478    6.52590148377093   -1.18969880702500
H         -21.30029694682183    4.45865040527493    0.42548824995542
H         -22.25837097598730    4.12022600135086   -1.01743503892869
H         -23.04264129033207    4.70743241668915    0.44996523924757
H         -26.20916694497982    8.55043321540614    2.00648911155386
H         -24.36038836136701    9.71063072163048    3.41784604509579
H         -19.47707653016926    5.30848363153368   -0.38903317731699
H         -16.46891189946083    9.59406113453368   -3.79417782180956
H         -17.16231345650736    4.90665873832235   -5.35019627706889
H         -16.32682498231302    5.51266292110909   -7.54131015635386
H         -15.42789344018856    7.19382579607077   -9.10036146572742
H         -15.07067185128254    9.51410417391516   -8.35525988341183
H         -15.61122580560548   10.17272671602448   -6.04394576058256
