93
 SCF done       -184.832312300025          0.000566288607
C          -0.95065745613623    2.22284097632318    6.00024391068518
C           0.07121267292387    3.09259663450737    5.71805484566122
C           1.36506640048046    2.99520685915654    6.27152356676340
N           2.43220948324541    2.97187482900683    6.69391015975996
C          -0.00592611702256    4.17633630592981    4.81802311489568
N           0.01635143666165    5.06334819360465    4.08885150880363
C          -0.84679106556840    1.04337893473206    6.85014615977467
C          -2.06267954635278    0.32273866457367    6.77218286305086
C          -2.27953827452581   -0.84688333561511    7.45897868544927
C          -1.24431739694816   -1.32876735376063    8.26629174674153
C          -0.03366619414364   -0.59894204763914    8.34450542573753
C           0.18509616395869    0.58280072022624    7.64721788557257
S           1.10653130279024   -1.36642813017482    9.40727798115412
C          -0.04111741044157   -2.64036935431044    9.72552657862188
C          -1.21841942495793   -2.50032567640801    9.07107140689331
Br          0.42224254354227   -4.03184459780648   10.89374675015311
C          -3.00235782473063    1.02742481300000    5.87936267727040
O          -4.13709344708806    0.68276803532314    5.62943844725912
C          -2.29326317365334    2.25728314413266    5.44750802621874
C          -2.84598193153995    3.34018001569853    4.81991870317145
C          -4.09675184132616    3.45155075121072    4.18016198923399
C          -4.95946721530792    2.49022056588302    3.66910237386892
C          -6.09832384617108    3.05386574431854    3.11119788119013
C          -6.11971650708191    4.46385697553254    3.19315740564147
S          -4.71462428068136    5.08901037296168    3.91495333817119
C          -7.35078373121210    4.92831282529450    2.66791022815983
C          -8.10375905460786    3.81401564154634    2.24576310541418
C          -7.33358359682549    2.60475411152731    2.48877354610929
C          -7.69027726442087    1.32345146494404    2.18946661490497
C          -6.84471082102675    0.21803873773666    2.42869250273660
N          -6.16940042280693   -0.69400763068047    2.58992827775598
C          -8.93057150058141    1.00854291503990    1.59324901941945
N          -9.93640623324340    0.74023785265667    1.11290148053188
C          -9.35645943660255    4.17062413015586    1.74981030056927
C          -9.54673862221425    5.53759168631625    1.80126762994225
S          -8.18039536614932    6.40626806534379    2.44853783208944
C         -10.72791911425593    6.25952837576778    1.44204719203932
N         -11.78743942380963    5.56722897493614    0.98074289742815
C         -12.88379558882628    6.24908239199054    0.80052984849323
C         -12.94712563488283    7.62245945916439    1.14295603413995
N         -11.80049563342547    8.25594681771471    1.43917617875092
N         -10.70886063948737    7.58813287961577    1.56512194147011
C         -14.15511346028639    8.37518822507617    1.17346811090906
S         -15.70610809835356    7.60873129704159    0.88711457642290
C         -16.49479204972499    9.09786141581302    1.19090391079530
C         -15.60387282336797   10.13396889680978    1.48377623155284
C         -14.28080399844353    9.72163476510104    1.47554705277186
C         -16.35145526947324   11.41805089873171    1.75806216013532
C         -16.08034124951741   11.92676978913090    3.17630916538432
C         -16.00650185273813   12.49192721001864    0.72205824915402
C         -17.77846806589510   10.94458705954785    1.60446796198366
C         -17.81645260440584    9.59035540655619    1.26402497976669
S         -19.41627300270711    9.00060256944803    1.09642586499365
C         -20.05495742247610   10.58398872647393    1.49941770000496
C         -19.04063900537996   11.50328450214036    1.73519361991412
C         -21.46187454672373   10.74368232069037    1.56744333832496
C         -22.09884337286743   11.89104958775996    1.90889606916267
C         -23.50700484214742   12.03059272451253    2.01210985643390
C         -24.50638530078216   11.09417684841747    1.80328101682319
C         -25.77664255130889   11.62132637541825    2.03082883103237
C         -25.75343779924841   12.96949665072442    2.41502081614889
S         -24.16638638821884   13.58888680859684    2.49454885394763
C         -27.09320934373348   13.40079444135980    2.62725426228012
C         -27.95495844187679   12.32557654764874    2.37737109991153
C         -27.16488828899329   11.17200624111231    1.99428741356101
C         -27.61416497850816    9.92504390369143    1.67020776688455
C         -26.73529453004055    8.88114719033032    1.31404796955234
N         -26.02107301686404    8.03154915426678    1.02516536510108
C         -28.98565214567049    9.59541700558496    1.66998463605842
N         -30.09911044985188    9.32067841186639    1.66827855791897
C         -29.30839630971922   12.66598737241461    2.56818187422503
C         -29.44366669726757   13.96512073239170    2.95077077724070
S         -27.93619461066006   14.81088778580938    3.09029835854703
H          -3.21766484990735   -1.37244368193914    7.37393940674206
H           1.12268616488414    1.10395353435646    7.74455229477785
H          -2.03648159479470   -3.19260312062625    9.15154540545820
H          -2.27871935547977    4.26364035400925    4.84075009919055
H          -4.75352895113109    1.43754409473520    3.71247972914416
H         -10.10904333279092    3.50063894314093    1.37672612809837
H         -13.73032888739200    5.72751344261351    0.37246878184427
H         -13.41988874889118   10.33106284153695    1.67917560851054
H         -15.03070921011558   12.18778703998230    3.28374294102380
H         -16.32565939715452   11.15935379622652    3.90700090692917
H         -16.68445211405366   12.80747083864126    3.37936429383587
H         -14.95372672745850   12.75286173465173    0.79318077904782
H         -16.60303255049319   13.38398480238424    0.89608295968466
H         -16.20868381653154   12.12748059183070   -0.28257521199635
H         -19.23077018763844   12.52832423253794    1.99456417098524
H         -22.04374411693042    9.86180533006494    1.33987421659501
H         -21.52164111776656   12.77610575536704    2.13622655878239
H         -24.31177982492285   10.08162027209479    1.50299381157783
H         -30.13606345043843   11.99419868433615    2.43212276852227
H         -30.34880037925452   14.49676891043182    3.16581984243687
