97
 SCF done       -208.439667698354          0.000507418177
C           1.24695208932303    4.79362513837470    3.06928645584645
C           1.42585636486738    4.13537114989303    4.25910858841712
C           2.67561048762671    3.97995865452202    4.89489457218423
N           3.65979235689022    3.82596364945012    5.46531145103554
C           0.41155862621375    3.49424670695059    5.00100988261619
N          -0.35093933968688    2.93256553881020    5.65104648724218
C           2.31060557058244    5.36797932493752    2.25495937044757
C           1.74896855002430    5.83439246669617    1.04216248216303
C           2.49788317393955    6.42576789490477    0.05412357341693
C           3.87193074206952    6.56426010342829    0.27414536759767
C           4.42583808535086    6.09928213888558    1.49138987678266
C           3.66692549877089    5.50091402966205    2.48963362062021
S           6.13974866057452    6.37540926050464    1.55922759737545
C           6.09019880957284    7.09927234553530   -0.02656858459079
C           4.85469483136596    7.13415865289946   -0.58024058833243
Br          7.67285438509002    7.74230124404828   -0.79936414215597
C           0.29467969397190    5.58868070062848    1.04111162773846
O          -0.47685237558643    5.90075032069862    0.15966380086053
C          -0.00604870548902    4.97145073301962    2.35621746915184
C          -1.24330430813031    4.76756742914518    2.90449916667203
C          -2.51131082668701    4.80839204734123    2.29253081410415
C          -2.90022218367928    4.73776935897762    0.96069623553328
C          -4.27898704369551    4.78628729064215    0.81404836562615
C          -4.96637562114769    4.89954368355486    2.04415757876312
S          -3.91013045359570    4.90593854637757    3.37480039187223
C          -6.35182245381168    4.99586492066000    1.77535198369098
C          -6.54699981273319    4.93863955702419    0.38412667536520
C          -5.25267787970343    4.78298388168950   -0.26464525209293
C          -5.01490652725516    4.64290252569759   -1.59924278937625
C          -3.72191422121505    4.44352545647437   -2.13151268743325
N          -2.68764955015462    4.25312930447893   -2.58688761068310
C          -6.06023364263192    4.65986667439962   -2.54805516141667
N          -6.90909491692546    4.67346782910623   -3.31844628541008
C          -7.88660225971567    5.05187659716941    0.01848443478064
C          -8.71305571126698    5.19765834967122    1.11887744089872
S          -7.82161480493212    5.18330338237524    2.63071445908007
C         -10.12039474538831    5.37369969342244    1.11431691230464
C         -10.95804981108785    5.53176828107869    2.19851127634597
C         -12.28348497642464    5.71900370004566    1.80606663827911
C         -12.46631047767939    5.70414985216100    0.41719496232577
S         -10.98045906304718    5.44723013954653   -0.41569425880747
C         -13.79844624922579    5.92019751806370    0.05567818124180
C         -14.62887537875989    6.09989008864480    1.16937509221701
S         -13.76582361423829    5.99243956644196    2.67778497089797
C         -15.96264278447326    6.34285711736801    0.84012939042045
C         -16.15986252827886    6.35078343911734   -0.52466737456530
S         -14.67957469000379    6.04566787686041   -1.41948922569082
C         -17.36730667622676    6.59141202199308   -1.22938503845942
C         -17.54676034985251    6.59847576328914   -2.60112895777325
C         -18.86142314662429    6.89839944196611   -2.95261262020351
C         -19.69046303621369    7.12255961875252   -1.83941919052362
S         -18.84856597660615    6.95760891368028   -0.36099195485588
C         -20.99214555472445    7.44276511484990   -2.29787081899745
C         -20.98292547799594    7.41600156287896   -3.70788051948066
C         -19.64651721360109    7.07842668638314   -4.16397638748782
C         -19.22189771707029    6.98881535531813   -5.45665648514599
C         -17.89114364305510    6.66055423638380   -5.79111182219893
N         -16.81156365775556    6.38463074368641   -6.05998969968827
C         -20.10197213595018    7.22192316737921   -6.53488279970811
N         -20.83213239325192    7.40984970571887   -7.39882125534393
C         -22.20637527353844    7.76182087463897   -4.26388599545898
C         -23.15744646248732    8.06043346593279   -3.29864641707791
S         -22.51537666688693    7.86586294067868   -1.67011889895742
C         -24.50553363001129    8.43860209299508   -3.47577081657810
C         -25.10332427895315    8.94323357813206   -4.59109806323104
C         -24.59242616279962    9.51055866019532   -5.82176681113273
C         -23.42424516820023   10.20953405914277   -5.98560769387239
C         -23.06147416361585   10.86358138754784   -7.18198539799224
N         -22.72273589222411   11.41843107661956   -8.12740806263210
C         -22.49356236087987   10.44519479824460   -4.95548899455628
N         -21.71964553915163   10.68751864557197   -4.14236885639687
C         -25.67386253296054    9.46009550397577   -6.80025280003750
C         -26.87654175956357    9.11287378449572   -6.13409417081627
C         -26.58694921876547    8.86119237217561   -4.70949502702857
O         -27.36680797820792    8.59547521228717   -3.82453542145371
C         -28.08114244021215    9.02439858523339   -6.78888648043018
C         -28.09568282088508    9.27636264088733   -8.16497791475115
C         -26.88491301007527    9.60238246471018   -8.82322542170867
C         -25.66772646352313    9.70156962918617   -8.16026974263813
S         -27.12954976044201    9.85666305038341  -10.52335987557989
C         -28.83204557158632    9.53297282863747  -10.33079844192802
C         -29.20029210104331    9.24592989311850   -9.05937525394335
Br        -29.96148992082131    9.60173500021512  -11.82566782104668
H           2.03723241829545    6.76762694977654   -0.85937591361105
H           4.13577633726401    5.16821302907964    3.40044352181545
H           4.64280125776278    7.54471235681298   -1.55055003654508
H          -1.27952984534960    4.57199125408832    3.97002333759105
H          -2.19833977546789    4.66080186074999    0.15178536575875
H          -8.26030837134679    5.03824487118853   -0.98956998636481
H         -10.61722796774240    5.51654812443907    3.21760083592130
H         -16.74891297658603    6.51068508978443    1.55320088851065
H         -16.74859014356517    6.39751247240815   -3.29306889213269
H         -22.42206528297866    7.76064167716603   -5.31670549206782
H         -25.17591131160033    8.24673895565068   -2.64360535413762
H         -28.98422345891180    8.76778402553444   -6.25779840165960
H         -24.76809721645986    9.94233922451052   -8.70213774439845
H         -30.20851847688416    9.02126106649427   -8.76291343670969
