103
 SCF done       -228.950317461247          0.000898339108
C          -1.46793715193216   -0.50398628636798    0.59806050008673
C          -1.99245693092471   -1.53504925526212   -0.13906165589280
C          -1.28215722241563   -2.70788809366812   -0.47229140075673
N          -0.76144688637678   -3.68426577441426   -0.77753224454604
C          -3.28391739242785   -1.57250395515433   -0.70584671203137
N          -4.31017064676298   -1.68129899624843   -1.21061902661208
C          -0.09598788777620   -0.43425200240665    1.08507446841022
C           0.11235055787433    0.83892696168430    1.66744287387429
C           1.31455582977245    1.22067192609959    2.21141022885400
C           2.36468010403068    0.29754473698179    2.18146589652920
C           2.14691800460100   -0.97603044557880    1.60249286639287
C           0.93091727894753   -1.35983881955367    1.05101510418365
S           3.57413506010443   -1.96380608054228    1.67663570012302
C           4.43293720993531   -0.67023752316761    2.47039762537560
C           3.69072549587221    0.44460056288720    2.67194290864292
Br          6.22599039124660   -0.91543885865801    2.96064909007102
C          -1.13127148506697    1.62841638275210    1.59232666015465
O          -1.28039774492057    2.75578730910779    2.01297343600287
C          -2.13323247093594    0.73694429222920    0.96045235549928
C          -3.48184631672463    0.93985695673593    0.84400712530147
C          -4.26428569954697    2.09006999620092    1.05972448232674
C          -3.94162575216269    3.42769534434119    1.25761682279969
C          -5.06912043417437    4.22976533525866    1.36160802428298
C          -6.27950349095929    3.50389470511966    1.25167072751164
S          -6.01887503347525    1.84459652545587    0.99923095309637
C          -7.35655061250104    4.40661088628075    1.37928988713563
C          -6.84320810525724    5.70351892456206    1.56203063576392
C          -5.38735720432724    5.63434010489208    1.55145010643711
C          -4.52090299875746    6.67974932213008    1.67379292158891
C          -3.11770959514923    6.53413927305684    1.60753972824574
N          -1.97653065789474    6.45564094744515    1.53953132923861
C          -4.97794822026509    8.00247023732841    1.85830792981905
N          -5.35241888376958    9.07567189896337    2.00911527196238
C          -7.83791969331559    6.66958902319149    1.67943986502529
C          -9.10997967493687    6.12506840352169    1.59218369119350
S          -9.06580118556010    4.38027273624563    1.36225180245736
C         -10.35557793677076    6.81060708581093    1.64736565838532
C         -11.56461074596628    6.15434353760415    1.57750899769013
C         -12.80674480923437    6.77586002890613    1.59174585231279
C         -12.92930519583955    8.23269783279909    1.66994592762240
C         -11.87539753891980    9.07406792919730    1.76638132342682
S         -10.24077217955627    8.55903434165155    1.79373562898192
C         -14.32543787247434    8.49479130501726    1.62121679955076
C         -15.03951106812655    7.29518604639778    1.51947091645684
C         -16.43426509091952    7.52296677437144    1.46837071073109
C         -16.72715130590876    8.84839155823314    1.52996126383899
S         -15.34131072659591    9.87647752618955    1.65336244481529
C         -14.09756562874059    6.20272371420856    1.50998697783701
C         -14.35630316132111    4.82086425351554    1.45747837315825
C         -15.58835162273953    4.25386942182011    1.32561728517052
C         -15.82811326028139    2.86972327092443    1.31272529555890
C         -17.06346329455334    2.23393308198827    1.16661622221580
C         -18.32208505957680    2.92279429809081    0.93887314360567
O         -18.47394118808323    4.13213406198575    0.93768406582815
C         -19.44668391051391    1.99072297901104    0.67688472279845
C         -19.35657876989744    0.58479759995954    0.87108378502591
C         -20.53583759187849   -0.05193417612782    0.57652375681294
S         -21.76404396078446    1.02736198263661    0.04622876127457
C         -20.69557963043604    2.36135091005406    0.23903936393219
C         -21.17981330671202    3.73894210578649   -0.08846019801276
F         -20.42701651425536    4.34779747829476   -1.00998323698723
F         -22.42773116441315    3.69769711954959   -0.59149433052460
F         -21.23736162439162    4.54059791612496    0.97954615814484
C         -20.82805830831298   -1.51681227336358    0.66941277384165
F         -20.84884466907448   -1.95596816444591    1.93313538760136
F         -22.04427121760127   -1.79191218292802    0.16023927818154
F         -19.96070312845931   -2.27249639203204   -0.00485429510779
C         -18.11556694271504   -0.07278135344083    1.33565193954170
O         -18.08613462197427   -1.19546319797831    1.79508871428135
C         -16.96227449367142    0.81809048990891    1.24554621431639
C         -15.66411331999030    0.36859213605454    1.40196524595711
S         -14.54493944377591    1.69134695004894    1.50267298439484
C         -15.27765179625632   -0.99962279673019    1.34582273136781
C         -14.38369213669027   -1.75660475195303    2.02855858808904
C         -14.47973861918583   -3.14198791972856    1.55823115976933
N         -15.40524805069705   -3.19287031030629    0.56261703298097
C         -15.92234740163035   -1.92137890120103    0.34219259272038
O         -16.67176507790228   -1.62894357109709   -0.55300134050808
C         -15.81026905695226   -4.35552494832026   -0.18113522057711
C         -13.62645243950703   -3.90471386868971    2.26576368957888
C         -12.95596866325012   -3.01330603724850    3.22982554253657
O         -12.12492188604107   -3.26289062513500    4.06598928060100
N         -13.47010778870946   -1.71135321060115    3.02368941829801
C         -13.08125021912075   -0.57336914684043    3.80920690721130
H           1.43933630518466    2.20077414427873    2.64427046409930
H           0.81569036213900   -2.34279583834889    0.62628184574229
H           4.06094490509907    1.33464362017137    3.14698321211106
H          -4.06937256618777    0.07895467767279    0.54623228598168
H          -2.92566376675820    3.77192450317200    1.32641714811777
H          -7.66297806100879    7.72077091513032    1.82095789324860
H         -11.52512517276878    5.07586338046397    1.49551034560933
H         -11.98957891619691   10.14444373813052    1.83206401062618
H         -17.19841504879976    6.77213559004930    1.38832395137925
H         -17.69816984031274    9.30295528398688    1.50999032377932
H         -13.50053915742946    4.16001044859678    1.53652437956004
H         -16.46694257185343    4.86811086361279    1.21608855419277
H         -14.96870617016077   -4.76646911810381   -0.74203309566425
H         -16.59422372045020   -4.04470969046725   -0.87028538235851
H         -16.20118530732264   -5.11739325318653    0.49436457573079
H         -13.42438051791290   -4.95503158466430    2.20942666557306
H         -12.34398213472352   -0.91935803575931    4.53323840668223
H         -13.94211312788875   -0.15762822389235    4.33604406224450
H         -12.64036260641086    0.20091196950220    3.17772608018610
