85
 SCF done       -176.832637797007          0.000591579781
C          -1.83424295134916   -0.06479250490009    0.41200874769647
C          -2.06945727271251   -1.20804604600010    1.12669482548619
C          -1.13199694520542   -2.25202520164463    1.28274712228446
N          -0.41373552831284   -3.13103301669493    1.45175861847397
C          -3.27901566448676   -1.53080261377847    1.78009574580783
N          -4.22922317669098   -1.88614616018940    2.31720032691085
C          -0.62570608955767    0.23051575556790   -0.34422791407707
C          -0.80371393959971    1.45561431462005   -1.03178474038543
C           0.16156261826551    1.99266938449640   -1.84901720887024
C           1.35628453469069    1.28282797950493   -2.00408876897350
C           1.52728922611490    0.06070857339093   -1.30947463963223
C           0.55559984166453   -0.47812266541107   -0.47680080578313
S           3.07622928830029   -0.65261137644532   -1.64318233046535
C           3.46535224019228    0.67816815451025   -2.70034835550351
C           2.48907632130753    1.61189322025866   -2.79743805768739
Br          5.12188975471424    0.70866124384121   -3.57779124585045
C          -2.13487013801943    2.01455763839257   -0.72451884679647
O          -2.55937599952082    3.08362228080981   -1.09633182952326
C          -2.77288369627174    1.02794450718828    0.19719601487789
C          -3.95085997290748    1.20493483695483    0.84139867012893
C          -4.90722433781640    2.22898319330864    0.52277916343897
C          -5.60799147116204    2.89824789884804    1.51425786733692
F          -5.44374950354714    2.54049350972603    2.79530894836766
C          -6.43573824795246    4.00031652759568    1.25472368991219
F          -7.04715464621452    4.56991919126281    2.30926134560311
C          -6.61020311699827    4.52875356407277   -0.01482575845667
C          -6.04496668368017    3.76174337979114   -1.06618197802515
C          -5.21344978311960    2.62007876409496   -0.80398793142872
N          -4.83025536838070    2.01872575589699   -1.92652890180232
S          -5.40368591725797    2.84003099115553   -3.17787460091047
N          -6.19441410118789    3.97946465763603   -2.37064119426680
C          -7.32325566950914    5.74901473277351   -0.31092152469965
C          -7.33676898021884    6.94748187329418    0.37803116433637
C          -8.21021413166147    7.90706100741098   -0.24515203929082
C          -8.48096279059080    9.22533633756574    0.11586643326706
C          -9.36596350361522    9.97392275007230   -0.64648124351966
C          -9.98761602533435    9.43231623923433   -1.78440198780086
C          -9.70869577995458    8.14269712477944   -2.16975540717303
C          -8.82279586626652    7.39077261705451   -1.40636717828523
S          -8.31258450946106    5.77185669305187   -1.74787628557700
C          -9.64353961004840   11.30935956374323   -0.27306539071341
N          -9.86693569212646   12.39238076830937    0.02867311895792
C          -6.52603740606109    7.21082846570044    1.53679169960382
C          -5.29774392701295    6.66439820101360    1.84125500080582
C          -4.83507905007291    7.05623307835305    3.09934605292440
C          -5.70427062552181    7.95456159056055    3.74287121556864
S          -7.10294229096426    8.26608294879108    2.82394682077598
C          -5.13177378129616    8.32890310992651    4.98172364448905
C          -3.91075462405851    7.65304892802048    5.13479829303301
C          -3.71207531766239    6.78946203681263    3.97430892321275
C          -2.74531462500564    5.83922473085725    3.81539967461627
C          -2.75531957270811    4.91901831669028    2.74766635298815
N          -2.77624021728643    4.12687747584738    1.91772728463491
C          -1.70529022806480    5.66285894582237    4.75178535883981
N          -0.84736528096076    5.52398638393159    5.50008285205875
C          -3.27004616877610    7.95293383647320    6.33127072278539
C          -3.98371303962438    8.86398029135085    7.10351272256360
S          -5.48305850550282    9.33720048231262    6.31720679797244
C          -3.58093561818244    9.36627028008612    8.36182393253564
C          -4.19211717875547   10.28324548493726    9.23305606260598
C          -3.42083752550855   10.50644175252950   10.41822016495194
C          -3.89461175024452   11.40198642819207   11.39982741833980
C          -5.08220961247577   12.04652232114960   11.20883988725571
C          -5.84062409991347   11.82874424253492   10.04320845837094
C          -5.41292972607079   10.96805999181074    9.07216278480909
C          -2.23268180308380    9.76704456900400   10.45060871970297
S          -2.07599149699746    8.80638534371408    9.02616774035332
C          -1.23931163200471    9.75352180017952   11.47819741202381
C          -0.12376350491361    9.02138242116032   11.45218385893216
H          -0.00339169088004    2.92936394779668   -2.35796832754890
H           0.73585350839047   -1.40894984517184    0.03435052958247
H           2.56295153945740    2.49616773915423   -3.40373024178925
H          -4.19865765257882    0.58273930022597    1.69231464652879
H          -8.01079472572025    9.67778398653408    0.97468430201074
H         -10.67378111861484   10.04146811199213   -2.35253904425865
H         -10.16204962113569    7.71318109129975   -3.04885796552532
H          -4.75231977655596    6.02859893870522    1.16689583936095
H          -2.32640157308615    7.54498808969024    6.64607515248819
H          -3.31536518966626   11.57111907236991   12.29411234367017
H          -5.45194716550864   12.73334648540594   11.95507300374501
H          -6.77566419827394   12.35378023779486    9.92005118179536
H          -6.00873462462082   10.81556312536072    8.18729739059507
H          -1.43996266821839   10.39643728792884   12.32444465571461
H           0.10434285114312    8.37093106613980   10.62402302768564
H           0.58860400020781    9.05267246195185   12.25661801184063
