101
 SCF done       -204.991668025719          0.000463890107
C           1.52009309668712    5.27268832495149    1.40494964963479
C           2.13405261404982    4.12715141667219    0.96815771773476
C           3.53230290877178    3.97292541581015    0.85809213614418
N           4.65897440609817    3.78388696830526    0.74577172072071
C           1.48370455928933    2.94066997969309    0.56853022993241
N           1.03519811255556    1.93982452871796    0.22778127719772
C           2.21203895969200    6.49026179094813    1.81908344530107
C           1.24765451867004    7.45053657555124    2.21317544459008
C           1.58439072470731    8.70653658729868    2.65560921606582
C           2.94303487865905    9.03409679897496    2.71164736041895
C           3.90086405105850    8.07027773627809    2.31589453243591
C           3.55823597150978    6.79944787513003    1.86927960632437
S           5.52020642080401    8.68171076719595    2.46147302504412
C           4.89781942655391   10.20277540596533    3.04389853284306
C           3.54679748940246   10.25246704116325    3.12607586853376
Br          6.08908825238399   11.58120422238205    3.48809607774067
C          -0.09614374985513    6.87131554239194    2.05963167116810
O          -1.15314189247880    7.42568932119091    2.31423538055462
C           0.09559863440715    5.51316478886398    1.54524122282494
C          -0.90801848551513    4.62946926609725    1.23468662047429
C          -2.30013321188969    4.77227167449490    1.31008161910468
C          -3.16769576267319    3.74926951300309    0.90450329237323
C          -4.49710929729875    4.09790491802407    1.03304734008572
C          -4.65930706254728    5.40613690803376    1.55386777514264
S          -3.18369895433397    6.19300445256507    1.87508854043060
C          -6.04515178845593    5.67591108721661    1.62331868024376
C          -6.75908431538345    4.55961401642888    1.15077541054829
C          -5.80829302836879    3.52453521542360    0.77453322460400
C          -6.09366369361634    2.28369184092466    0.28745787918891
C          -5.08528903925055    1.35297123188212   -0.04248261567736
N          -4.27190472838330    0.59191963856527   -0.31255748271038
C          -7.42008035214877    1.84580595573430    0.08656057021115
N          -8.49861094903821    1.49140541305112   -0.07376197029658
C          -8.13668825127804    4.75241520545142    1.15885489523141
C          -8.49189328479416    6.00375125830448    1.64303119819410
S          -7.08206291429790    6.95037383067975    2.09230931504867
C          -9.81814633217301    6.50379397457035    1.72727573873710
C         -10.33082021360556    7.64669925741176    2.33214208313479
C          -9.54043167921658    8.66940795442522    3.08431164360477
C          -9.03575338982692    9.77017930108670    2.14865371573558
C         -11.70984117271812    7.77269113032157    2.14471989266198
C         -12.28632695012557    6.75581858277458    1.40814220279332
S         -11.08331351287453    5.58966469901183    0.94686138273541
C         -13.62771008289961    6.57354616695893    0.98429485222308
C         -14.63691847077177    7.44974226328372    1.21539126770146
C         -15.96308618277750    7.29368708915701    0.73857258405921
C         -16.51670335387974    6.26382031052376   -0.00909491119048
C         -17.85129487559439    6.50165224472173   -0.32123884418522
C         -18.33080614106006    7.72282109098101    0.19082145860108
S         -17.13047193903081    8.56716002937367    1.06232499569557
C         -19.67693681190197    7.88752693319497   -0.21207171370391
C         -20.05129797885582    6.76367239065322   -0.97938623912321
C         -18.91979892008044    5.86022338794853   -1.07352038762691
C         -18.86759050135981    4.68237884065513   -1.75934089660245
C         -17.70498069152779    3.88449788003578   -1.79307333449696
N         -16.75811347540948    3.23840622830413   -1.80968789933819
C         -19.98374580520392    4.19993912203932   -2.47499132778105
N         -20.90148234891844    3.82242979012839   -3.04959677260594
C         -21.34353852351760    6.85440643033227   -1.47670527222302
C         -21.96889370566867    8.03646457224008   -1.10614146634219
S         -20.93247879760669    9.02799742639725   -0.08220913837286
C         -23.26953231340780    8.48492961962971   -1.41716702546085
C         -24.09133918300198    8.07395843189493   -2.42385183844531
C         -23.87639305074041    7.30119468379138   -3.62921978637435
C         -22.72648244147605    7.23401691913866   -4.37362149363813
C         -22.63183328520321    6.57281316595786   -5.61630223670893
N         -22.50146205770977    6.05521609119029   -6.63199539047583
C         -21.53049431077189    7.90057736435496   -4.04551270710035
N         -20.54270984156917    8.44921157578415   -3.84056762033431
C         -25.18361455128615    6.83454565320670   -4.08080170090547
C         -26.18862400796203    7.49779908521465   -3.33208248917596
C         -25.54959545080636    8.36098598127151   -2.32050988082136
O         -26.08258896581004    9.11170346532010   -1.53626059337394
C         -27.52865850390739    7.30104927665184   -3.56241997467793
C         -27.89218840312524    6.39872357585115   -4.56789778983323
C         -26.88004740586051    5.72549815648615   -5.29415102415814
C         -25.52439826819754    5.93052949559310   -5.06804744083907
S         -27.55185765688618    4.64561837535172   -6.47650493447351
C         -29.16111583091431    5.11146120230294   -5.99316266714917
C         -29.19603356476822    6.02564048271814   -4.99445401047822
Br        -30.64244343514241    4.34531933772724   -6.84992017874331
H           0.82447717153227    9.41401937869421    2.94822112861349
H           4.32736098670802    6.10371175330902    1.57932466660333
H           2.99754018933809   11.11196668534623    3.46446637631096
H          -0.60612675051489    3.66029558192931    0.85654546347516
H          -2.80505842345172    2.80783944485476    0.53087162510313
H          -8.86458037684365    4.03093381343383    0.83384162552947
H          -8.69513946004470    8.20168168431637    3.59187534174337
H         -10.18419058822965    9.11586674297005    3.84479934433929
H          -8.39600416381039    9.35526774008714    1.37375024501902
H          -8.46521111540411   10.50512772605726    2.70987507045050
H          -9.87405264561494   10.27077455257004    1.66977700223710
H         -12.27304829882655    8.59657185505589    2.54477670482621
H         -13.82126358907423    5.67439357370987    0.41703177163800
H         -14.44294610680193    8.35124841121333    1.77910645589684
H         -15.96689250362907    5.39187411769208   -0.31064801227560
H         -21.83398833803271    6.08874959901406   -2.04978771052064
H         -23.70668145873503    9.21069418795570   -0.73812055330426
H         -28.27393340392453    7.82622930064325   -2.98603871368232
H         -24.78753091821745    5.38945588758622   -5.63821822635305
H         -30.10268008441290    6.42158641397106   -4.57479084454683
