90
 SCF done       -189.180684037272          0.000557841733
C          -0.79912932298584    1.23956804334248    5.02094642839802
C          -0.59939054527644   -0.11222176563202    5.13064808210406
C           0.61427529112117   -0.69994151853216    5.54614978154780
N           1.57244135356079   -1.23824332018499    5.87770548376897
C          -1.54806055786699   -1.11201542353209    4.82880891784503
N          -2.25709358551174   -1.98514761296227    4.59665170180207
C           0.20573543760394    2.26363992762025    5.29079012248878
C          -0.34498761721383    3.53345232246969    4.98673992619375
C           0.35709904813621    4.70463510895438    5.13613922772631
C           1.66919132794180    4.62025583409177    5.61340919527140
C           2.21182471327299    3.34873493094448    5.91727671406113
C           1.50090520045435    2.16444627224209    5.76302721248284
S           3.84458454004000    3.47273465558766    6.49643728587445
C           3.77811820166392    5.20672015561975    6.32494433093253
C           2.59458158020351    5.67120880406109    5.85796478997417
Br          5.27562088510030    6.23940786773428    6.77986807629548
C          -1.72875154044769    3.35671545287907    4.51881868589979
O          -2.48724664429591    4.24089954073066    4.15700523891443
C          -2.00673123074695    1.91906998615430    4.58815061786341
C          -3.22283357257104    1.33102141032240    4.34872725136382
C          -4.43905646752347    1.89584511226329    3.93787734968945
C          -5.60290152218703    1.12579426828802    3.81448086872724
C          -6.68907615990789    1.86965877858018    3.39862584758577
C          -6.35517595180086    3.22917999224660    3.17966107174311
S          -4.72363480098824    3.58507028702837    3.51267226500211
C          -7.52875546469522    3.90315606904324    2.76689925091460
C          -8.59751199482285    2.98854043823501    2.73077361921300
C          -8.10313873546934    1.67741513806150    3.11920014525269
C          -8.81926072090730    0.51998585824735    3.20243606424163
C          -8.23584440409987   -0.70187067279848    3.60020210601019
N          -7.77088897729587   -1.69774523782792    3.92558401746543
C         -10.19571021080921    0.47091027977178    2.89605984237805
N         -11.31387877226352    0.43517158337180    2.64489766426694
C          -9.80357444359916    3.57416055199485    2.35251182006262
C          -9.66058142490866    4.92588516884640    2.09025077063849
S          -8.00918025264065    5.48104353425201    2.31560727301590
C         -10.67436147418561    5.83668394081311    1.70108396105957
C         -10.52538069714102    7.15999105184187    1.32736763998094
C         -11.74870489680954    7.75826304486409    1.02874771798779
C         -12.83896562660910    6.88271255107049    1.18749674594754
S         -12.35680844300137    5.32189775754169    1.68333874200743
C         -14.03041169579342    7.58632463581789    0.88824217081023
C         -13.69565487839681    8.90389254543077    0.52928048722079
C         -12.24995913986811    9.05331756403723    0.60040041216233
C         -11.52125126280488   10.17274697217477    0.32247201235269
C         -10.11479697573792   10.19659955654753    0.42950208533229
N          -8.97150162445385   10.21595738979456    0.51593767924605
C         -12.12806023542372   11.37701684767737   -0.09148578650602
N         -12.62170077587785   12.35597795240445   -0.42738492743888
C         -14.80965175698434    9.68554600456824    0.23215631848078
C         -15.99372438697330    8.98134392920165    0.37164706095207
S         -15.71557490897507    7.31437735384141    0.86743950977249
C         -17.32021769333415    9.46459601409533    0.17720318705997
C         -18.43592898709927    8.70870575839357    0.45283204636014
C         -19.74847293289440    9.14588294779613    0.29924422161296
C         -20.04876072953119   10.48977095124209   -0.19953549716781
C         -19.10739322711918   11.39930768054377   -0.53736077343031
S         -17.42219200265554   11.11182005673185   -0.42963769794844
C         -21.46722196706717   10.57450957898771   -0.21929895467691
C         -22.02672407563631    9.37771295065198    0.23863894296606
C         -23.43906092488123    9.43232400017083    0.23454487953148
C         -23.89609773012864   10.63190381884097   -0.21159117323996
S         -22.64710476937404   11.74609433005689   -0.64562523283182
C         -20.95729488141985    8.46769415643765    0.57152344267798
C         -21.03505241810831    7.15795482515241    1.08664949490545
C         -22.16547678537712    6.46714204831183    1.39114235900223
C         -22.11762077330128    5.14826844217945    1.92716003180903
N         -20.95910483282882    4.54697501482324    2.14905046627360
N         -20.85928257748981    3.33609601227369    2.64625784406915
C         -21.88611550365485    2.60611869348212    2.97334134770914
C         -23.19659090870669    3.11212130275978    2.79446855286139
C         -23.31903591408629    4.43816961554590    2.24714964880767
N         -24.60191774125228    4.71542061641835    2.16140186420318
O         -25.23987696010750    3.63870238640739    2.62269762406775
N         -24.41827508252362    2.66263316503393    3.00893025486841
H          -0.09157236186967    5.65536765354621    4.89450923148391
H           1.95995347364336    1.22244784462963    6.01148960134375
H           2.38134981506167    6.71151078820351    5.69294997995717
H          -3.28998545143975    0.26201328587314    4.51141820261606
H          -5.61709564235773    0.07225534815554    4.03170002597642
H         -10.74394768939523    3.06011757434910    2.26483620314904
H          -9.56771058899495    7.64661181564943    1.27886439812357
H         -14.77470995056590   10.71903526257257   -0.06202166619525
H         -18.26595818513172    7.70640619576666    0.82380835030961
H         -19.35401362504125   12.38472493993890   -0.89986552677871
H         -24.09949467878629    8.64205029728031    0.53870521650459
H         -24.91663482830650   10.94431873686721   -0.31710592993477
H         -20.10171406554084    6.64251769856005    1.27006239678170
H         -23.15070407309207    6.88022118005033    1.24966813471971
H         -21.69379660944174    1.62475609330519    3.37576362534302
