94
 SCF done       -176.560498481543          0.000855501597
C          -8.98108612955022   -5.55645298393192    1.42479448468340
C          -9.19139329608184   -5.80123999305307    0.09019071205934
C          -9.23120127155829   -7.09050446423832   -0.47914117934892
N          -9.28267679733277   -8.11038600962479   -1.00470754212154
C          -9.36017413082171   -4.82345140529847   -0.91201245681333
N          -9.48488435634065   -4.09678680439004   -1.79330923156428
C          -8.70253868124487   -6.57643997693753    2.42943405911492
C          -8.40335807476611   -5.93267384409941    3.65337525643217
C          -8.09049298768348   -6.62208891908186    4.79903352025263
C          -8.07447610164250   -8.01940140867505    4.73390174427583
C          -8.37825969374617   -8.65545945307541    3.50713687898456
C          -8.69238290234676   -7.95643378940906    2.34805692569067
S          -8.30842148853450  -10.38612600920068    3.65004967588020
C          -7.87675438469404  -10.23286984715747    5.33254005793649
C          -7.78889827398671   -8.95366787639001    5.76717647171776
Br         -7.58637150890788  -11.77727824547917    6.35645302956455
C          -8.49756080585846   -4.46892929068881    3.47845690410114
O          -8.31468770288884   -3.64109617149899    4.34632358906969
C          -8.91367855158046   -4.26146934870214    2.07427042506055
C          -9.32329645001362   -3.09094298694245    1.48657811042120
C          -9.23442173517895   -1.76211690514625    1.92896300567354
C          -8.53014711111233   -1.15675571578986    2.96542361674841
C          -8.69678455357650    0.21881508031942    2.98253393532837
C          -9.55143620545774    0.69025904165881    1.95251344330991
S         -10.11700086234273   -0.56535251346457    0.95716646981573
C          -9.66703031249973    2.08726867476348    2.07010355324700
C          -8.88831202031503    2.51808581058029    3.16265414468101
C          -8.24336618366204    1.35629290438700    3.76088055387521
C          -7.37066589911979    1.35821637259710    4.81013279943933
C          -6.73904616952190    0.19128622115694    5.29157868478979
N          -6.19142939311384   -0.73091612028968    5.69576112185978
C          -7.01233076722254    2.54836612205666    5.47738579712777
N          -6.71858714719864    3.51455184397259    6.02114879600344
C          -8.92969590772579    3.89450281784055    3.35070328140389
C          -9.73355735866480    4.52585478789156    2.41109556763458
S         -10.45244260369264    3.38890617238069    1.27913354789583
C          -9.98703990343298    5.90768666647450    2.28373967305571
S          -9.25205906811673    7.05406293719637    3.39219184875389
C          -9.99804642586736    8.34956191757288    2.54838195432382
C         -10.77888882405517    7.91244984977196    1.47084253609294
C         -10.77232325463686    6.53754392857210    1.32504126243024
C         -11.40252250534901    9.08481202687673    0.75174020848504
C         -10.93519598422330    9.15766629392795   -0.70444322257910
C         -12.93131827664836    9.03616526753641    0.82789752347364
C         -10.84939349959177   10.23128095395838    1.56553165481782
C         -10.04144651870580    9.75430290901181    2.60839322857790
S          -9.38561694883213   11.02196122471897    3.55821331718149
C         -10.18903492915800   12.21571653135738    2.54527869664313
C         -10.93124826338963   11.60782388420050    1.53010343374615
C         -10.01207152561179   13.58215819691269    2.81941312855753
C         -10.54496723787753   14.59980155035078    2.07268529322232
C         -10.34791873057801   15.95591783438055    2.34260975938394
C         -10.86599533039530   16.97118912706250    1.57020469407309
C         -10.71069350540423   18.36329135143429    1.76176272467983
C         -11.33376444888964   19.13262960567073    0.82505790009759
C         -12.01875121619311   18.38871752582942   -0.16187597660519
S         -11.84570863425317   16.67542413442698    0.14300623461895
C         -12.73842663332040   18.86187793287614   -1.24021465723700
C         -12.96420606167375   20.20526840683833   -1.61993750316394
C         -13.71730397994742   20.34134376621622   -2.74137639851721
C         -14.14149183032333   19.11260522597810   -3.32903347517916
S         -13.52503950360177   17.77593808312370   -2.36809683901780
C         -14.90106269791774   19.02549804919309   -4.45840493895536
C         -15.39020333140395   17.87316328400717   -5.14855273278534
C         -16.15250571168225   18.03725739964188   -6.32177004774877
N         -16.63770008438915   17.02947139042282   -7.01402035673901
C         -16.37878562133923   15.81359985324801   -6.55919381748885
N         -15.68061267816280   15.52312702939673   -5.47508783653815
C         -15.19389135516864   16.53094938123089   -4.77914087138139
H          -7.86482738592303   -6.09942052168207    5.71525971260532
H          -8.92050384888153   -8.48853966470246    1.43989836695848
H          -7.53454301432625   -8.67750099940802    6.77415432086601
H          -9.81331185568402   -3.18815523016009    0.52450662675857
H          -7.93720789100361   -1.71861718961898    3.66387205633111
H          -8.40954848263609    4.43574006571454    4.12050131175593
H         -11.29788670757460    5.98715905792536    0.56503296286232
H         -11.28103055228622    8.28424821804999   -1.25143017873491
H          -9.84913066189716    9.19215161245668   -0.75222880896160
H         -11.33382843436554   10.05014561504021   -1.17988559436094
H         -13.30336865253123    8.16103330945878    0.30118616848270
H         -13.35560515630706    9.92713418685447    0.37215875406158
H         -13.25754826839459    8.98501312140638    1.86423267719224
H         -11.49648043792107   12.16936594748294    0.80966609804062
H          -9.39935692635895   13.83110362863391    3.67589195622964
H         -11.15170095003553   14.35948453556626    1.21007820679474
H          -9.75092285781147   16.23597958708227    3.20044414130271
H         -10.14106320087126   18.75353506207099    2.58679784370588
H         -11.31854264716674   20.20761449577036    0.81703351096666
H         -12.56441922190480   21.02881138086284   -1.05596790372047
H         -13.99057939108925   21.28517417932776   -3.17913771931632
H         -15.17741072602762   19.97306738697320   -4.90693063439927
H         -16.37130974516792   19.02722632869952   -6.70526929385328
H         -16.77513682047439   14.98231531464218   -7.12661412825908
H         -14.63072382321640   16.25626128516248   -3.89782660566364
