89
 SCF done       -185.082363362676          0.000396940685
C          -2.16974802543902    0.62961219989521    7.03648280828249
C          -2.01488627747626   -0.73152012548282    7.08394449312577
C          -0.95126326791693   -1.38201777416131    7.74449291780461
N          -0.11259321378862   -1.96863589934101    8.26429563307797
C          -2.86293354478441   -1.67622530523010    6.46822840168618
N          -3.49509043354092   -2.50536688237095    5.98682664148315
C          -1.25572399645227    1.60321869186702    7.62631278255252
C          -1.69238525763425    2.90567996003776    7.27847067792642
C          -1.03962962134803    4.04358125869677    7.68570474516462
C           0.09916347250049    3.88989756411854    8.48314205106401
C           0.52742987201250    2.58604301000363    8.82973431922220
C          -0.13118367474269    1.43547212912361    8.41211893503075
S           1.94865987744557    2.62489495061863    9.82751509381804
C           1.94858876685720    4.36756940681848    9.76723904436643
C           0.93750020885223    4.89549808572667    9.03682754594482
Br          3.28057558035660    5.32495666259172   10.67562701893333
C          -2.91227542569950    2.80107232568199    6.46255514241138
O          -3.53623620418957    3.72905774662788    5.97522970059375
C          -3.22528539976132    1.37193481191779    6.37152710647873
C          -4.36919516641031    0.84034286606717    5.83202209595556
C          -5.45452225377478    1.47198771589522    5.20742238852949
C          -6.59808871551818    0.76123774458367    4.82047680069275
C          -7.55802455079093    1.57237687370725    4.24863936129911
C          -7.13817785609510    2.92326016514065    4.16748478220305
S          -5.58962247770197    3.18928232676946    4.82210620648504
C          -8.19278209598468    3.67225388135961    3.59442700219595
C          -9.27465693354961    2.81416058760923    3.32545335545227
C          -8.90582569103095    1.46217522884770    3.71393927401641
C          -9.66858582717019    0.33751787989383    3.60045755120014
C          -9.21034888137514   -0.93035230651191    4.01765354832974
N          -8.84722217015953   -1.96339853880661    4.35665136811983
C         -10.97065625624017    0.37145981490334    3.05823262751446
N         -12.02834429228607    0.40343683333985    2.61650726004617
C         -10.37740536283830    3.47850254949365    2.79285748778545
C         -10.13915262898736    4.83359008678593    2.64163430169340
S          -8.52638188416412    5.29328667322828    3.16399670635145
C         -11.04234228350715    5.81597245788746    2.16388357617864
C         -10.77567417643124    7.13784668640550    1.85958316986836
C         -11.92031763049692    7.81998449143932    1.44769984688618
C         -13.07089889154202    7.00994891527816    1.45434620430889
S         -12.73929440621944    5.40681381122020    1.93749226890018
C         -14.17885284876910    7.79620110803188    1.05798091908038
C         -13.73153729464272    9.09930188365124    0.78395893638098
C         -12.29457383349854    9.15541545443458    1.01478255838944
C         -11.47594260859360   10.23516223384851    0.85921670797041
C         -10.09128249017394   10.16829488715389    1.12171445871256
N          -8.96621949600245   10.11381354240833    1.33584393316272
C         -11.96120603074163   11.48689402141464    0.42566756222739
N         -12.35640951987632   12.50408446017700    0.07383455670791
C         -14.76014831439550    9.95972513334186    0.40540710080167
C         -15.99348166353738    9.33091120242472    0.40498845093864
S         -15.86838001228007    7.63545204002010    0.86353386001626
C         -17.26384111944815    9.90302668278448    0.10508958752869
C         -18.44613827415873    9.23479638126347    0.31264118967199
C         -19.71281670714176    9.75597397613914    0.05640447265321
C         -19.87642590016308   11.10387164435001   -0.49935061684662
C         -18.85133865606497   11.93717640426724   -0.78178517445686
S         -17.20196866394197   11.54175770717442   -0.53537037115121
C         -21.27895854525045   11.28534711132316   -0.62903326869942
C         -21.95446092120075   10.14638049295921   -0.17750394885082
C         -23.35549795336656   10.29574498480687   -0.29667986793054
C         -23.69173322587263   11.50565038980900   -0.81509829288210
S         -22.33786200019104   12.51760671919033   -1.18268902267261
C         -20.98081222809024    9.17927622807279    0.26229456716269
C         -21.19688676253768    7.89722437597139    0.82706763813608
C         -22.39378964254322    7.33615709988064    1.11498336606685
C         -22.52004825946800    6.04908298159269    1.71252923579459
N         -23.63791019443826    5.46212623650898    2.03575069928262
C         -23.28079189368198    4.26149138916786    2.58478910919635
C         -21.90771941418877    4.17639931645289    2.56531630418517
O         -21.42277840249397    5.29472910976113    2.01930703292469
C         -24.25679551191917    3.30338867847420    3.08243473421737
O         -23.98555084135628    2.23926406557103    3.57760398120222
H          -1.39775973330088    5.02066085010943    7.40173171514223
H           0.23436458498165    0.46616282185135    8.70659862557152
H           0.78688513288180    5.95003391564775    8.89471061508026
H          -4.49711718654315   -0.23238196775979    5.91490535448161
H          -6.69203343490574   -0.29915512204323    4.97559341845225
H         -11.31034907952680    3.01742961719908    2.52226091866078
H          -9.79206327332261    7.56532186332306    1.93714337823769
H         -14.63412230546298   10.99751425596037    0.15473541198580
H         -18.37038245716899    8.23309985744669    0.71553868434877
H         -19.00043964086558   12.92734542701288   -1.18262270789299
H         -24.09043659618410    9.56132265243681   -0.02524759433983
H         -24.67658828770931   11.88178257002293   -1.01215182019755
H         -20.30860436021031    7.32523015157575    1.06256886340202
H         -23.32938567641956    7.83222547284760    0.92583933324432
H         -21.22661903499534    3.41767500035936    2.89191050994142
H         -25.29795242770153    3.65054512915934    2.96123265031732
