123
 SCF done       -249.087876422335          0.000373344588
C           0.32695217365202   10.67343079021484    7.17438842797493
C           0.32633840435900   10.13175987327018    8.43428556107243
C           1.36217944859534   10.31872344801133    9.37359472235599
N           2.16792866937413   10.43971379114261   10.18217633611140
C          -0.67335904400624    9.28754790772116    8.96203843776185
N          -1.43094857825532    8.57864093745815    9.45469010479557
C           1.40983189044236   11.45730612326840    6.59388525591450
C           1.10925829485433   11.70323121144409    5.23264439097758
C           1.94278801840151   12.41375337760744    4.40364437929104
C           3.13273170348706   12.90904983039086    4.94635704663945
C           3.42326303118849   12.66427113034248    6.31021954487299
C           2.58016063649722   11.94361770442817    7.14700705611774
S           4.93934827669852   13.37265904422955    6.77718018468893
C           5.16036801105112   13.97770530942708    5.15667091431487
C           4.15198247478581   13.66676809259537    4.30777899590962
Br          6.69989213550577   14.96350900938169    4.73977889852974
C          -0.19344350589009   11.09901091030216    4.89440307471789
O          -0.74052945689486   11.15221739246608    3.81382513790365
C          -0.69503027567094   10.50228094415830    6.15607015117389
C          -1.95710154250132   10.03465756673489    6.40441843516010
C          -3.00338944688050    9.74146873707583    5.50863921376655
C          -3.02262594118240    9.53213760544016    4.13508238388813
C          -4.29546502289103    9.23741966914583    3.66802111784161
C          -5.27384666179756    9.22326713441720    4.68918437108862
S          -4.61186529710051    9.53367326202331    6.22197749380670
C          -6.53420106786074    8.97213060402342    4.09939014615760
C          -6.36068681938658    8.81950001155297    2.71207437585378
C          -4.94532292413598    8.95951758065545    2.39854998945845
C          -4.36182635037481    8.83535705147865    1.17293271894639
C          -2.96792717184330    8.93803709180359    0.97048951932842
N          -1.83964555549666    8.99342601921255    0.77800492891442
C          -5.12021605375171    8.56562973342367    0.01338261446440
N          -5.73907173075054    8.34820922012520   -0.92703225694161
C          -7.55837945343804    8.59764036319998    2.03675477113505
C          -8.64295535901314    8.58566528874850    2.89787746495896
S          -8.17311085603798    8.83698171947711    4.57057237307712
C         -10.00992312729256    8.43761861591904    2.55551196507614
C         -11.10214636967097    8.46987401811437    3.40378966196714
C         -12.30467522279150    8.34809580176116    2.70944617385584
C         -12.12402966149139    8.21692272008687    1.32154470271646
S         -10.47830095615375    8.23730186773382    0.87160641017060
C         -13.39888329541831    8.14377879814328    0.70462461731996
C         -14.38504863879922    8.23246707714705    1.70086684899475
C         -13.73164904757092    8.35023203327407    2.99489366801379
C         -14.32806515785702    8.44856811100327    4.21694609599078
C         -13.57819317979258    8.56211089757916    5.40694942658437
N         -12.96648108688671    8.65640932548581    6.37201208686094
C         -15.73076566091362    8.44334711319761    4.37243172129626
N         -16.86958540329377    8.44078529591158    4.50395156893730
C         -15.68133966550680    8.21502405711373    1.18377018201238
C         -15.68616024622198    8.11069998388773   -0.19307256829497
S         -14.06479574788058    8.02349718580153   -0.86310848090363
C         -16.81602749971339    8.11814924853264   -1.05550857105303
C         -16.83337012859538    7.96511610323890   -2.41354226539113
C         -18.12342174801944    8.08391369136455   -2.97972451279767
C         -18.47773462391504    8.01359753359916   -4.34272355201543
C         -17.47083433790365    7.84498550798248   -5.37113102240937
C         -16.25578390677213    8.46011853856424   -5.47022391247435
C         -15.52642942954644    8.04300525722995   -6.60469060256822
C         -16.16269174104349    7.11213667036717   -7.37375345564926
S         -17.71139788363214    6.73955570159837   -6.69644136081952
C         -15.69374068240605    6.45432656891285   -8.61890545102941
Cl        -13.96241588547896    8.66753157159130   -6.96910228555277
C         -19.83102333530908    8.12736209684662   -4.63777830405635
C         -20.82471422242255    8.34658623980270   -3.64799424012454
C         -20.46546067689462    8.46136238817576   -2.28599926021823
C         -19.11703688909451    8.30105461385721   -1.99090049556183
S         -18.41513982738969    8.39433376178547   -0.39833437768061
C         -21.45492986900571    8.76984070553898   -1.27728882834598
C         -22.52463499004292    9.61640004333801   -1.37454068377265
C         -23.27581327936966    9.67533046391380   -0.18195279927780
C         -22.80348142152226    8.88712439659956    0.82856102205533
S         -21.38240896863125    8.04808262931730    0.31020303956595
C         -23.34651973489242    8.70094746430024    2.19702784097120
Cl        -24.67495694949205   10.66542736764023   -0.03076799480473
C         -22.11595138045390    8.43759135343581   -4.20714909238905
C         -22.13264983628501    8.36363882843295   -5.57539934981993
S         -20.52526392253307    8.08151121370429   -6.22995853519178
C         -23.22009173493458    8.45333760165575   -6.48008615017353
C         -24.39051331248439    9.12813648292849   -6.29614303799553
C         -25.49320227645055    9.14968103187586   -7.24398928337019
C         -25.72920800676376    8.22651508227433   -8.22778839184520
C         -26.82975940305150    8.27950074106824   -9.10856266697168
N         -27.70108924831148    8.27364372074861   -9.85581012204915
C         -24.93741209956738    7.08317174435067   -8.46748919462835
N         -24.35448630918964    6.12283533388080   -8.70479105125695
C         -26.35339023813190   10.27472142416337   -6.90459491111802
C         -25.85293906230782   10.88081809999481   -5.71737829690228
C         -24.64966500353783   10.16644231491887   -5.26253643695965
O         -23.99081158023517   10.43146186446407   -4.27882522089997
C         -26.45819819883400   11.96441864549920   -5.14850954922818
C         -27.61333148518083   12.50454094972252   -5.75612605732859
C         -28.11612708465129   11.90936402753199   -6.94942129051228
C         -27.46888035658156   10.78591281680538   -7.51349317893599
C         -29.26524123460661   12.46182663598286   -7.55065507534396
C         -29.88951297539644   13.54840989085532   -7.00084290321493
C         -29.39427816785318   14.13255170053100   -5.82544031679512
C         -28.28084675302840   13.62114600362741   -5.21577536162360
H           1.68434710683036   12.58001100075067    3.36966471042730
H           2.84454004845022   11.78887412934295    8.17958161155318
H           4.12572707964133   13.95903911852548    3.27394203015072
H          -2.22451115715583    9.88861987584482    7.44475240326838
H          -2.14284942957733    9.60443638587114    3.52333348746124
H          -7.65729996484774    8.45968516342202    0.97502397269102
H         -11.00888346386512    8.58674485892949    4.46866613896730
H         -16.58540257429100    8.28004999884599    1.76201939041782
H         -15.94788808207285    7.75508545712724   -2.98557017497735
H         -15.90547221862342    9.21710057418932   -4.79315500104989
H         -16.36912476498772    6.67357726224653   -9.44520048611635
H         -15.66079722268602    5.37276848950428   -8.49244654148066
H         -14.69851427303082    6.81163113300893   -8.87110150774524
H         -22.75932425608172   10.20682755646549   -2.24116461888415
H         -24.18609915858855    9.37377187943823    2.35291573290086
H         -22.58058870579091    8.90571744423682    2.94369733814810
H         -23.68580690063164    7.67493599545880    2.33891108677760
H         -23.00942430829182    8.50182130309930   -3.61884175066256
H         -23.05074649251987    7.97984848849774   -7.44019405246727
H         -26.06045567015778   12.40373873247101   -4.24563440717924
H         -27.86904598482084   10.36200852592603   -8.42088481350039
H         -29.64396207064874   12.00785359181831   -8.45460009937628
H         -30.76917131490397   13.96396590897127   -7.46900184507039
H         -29.89897423025636   14.98985206972028   -5.40577818757420
H         -27.89463683986911   14.06647059462975   -4.31056922845801
