94
 SCF done       -194.607157780024          0.000801186961
C          -8.48899866226717   -1.87261277668954   -1.68292434105781
C          -8.60703254551902   -2.87598452377665   -0.75969271138458
C          -9.00419953834291   -4.18757622350642   -1.08853208983978
N          -9.33546617291580   -5.26117243067797   -1.32255834693521
C          -8.30508851499537   -2.73375649147237    0.61193057561933
N          -8.05255755783018   -2.69042539011291    1.73055475453845
C          -8.68573286932804   -2.00068208377091   -3.12070207137156
C          -8.24442922140523   -0.80762203439029   -3.74279783373483
C          -8.31690830390074   -0.60629484394977   -5.09979796214922
C          -8.89308039460743   -1.61562653048393   -5.87630892769864
C          -9.35577782689084   -2.79435027366200   -5.24449292051270
C          -9.24409429578848   -3.01454338386220   -3.87738633962911
S         -10.09881470952990   -3.87406961215791   -6.38426816668740
C          -9.77645183756234   -2.74826704239757   -7.67836198649735
C          -9.14508403865472   -1.62021353251034   -7.27516715024320
Br        -10.29981110605086   -3.16986445874340   -9.42052849855583
C          -7.81427325620509    0.15546455759542   -2.71360413572064
O          -7.42459065750196    1.28821494389616   -2.91674059735853
C          -8.06737924764250   -0.50740908545612   -1.41234037923170
C          -8.17553340935217    0.12905040481431   -0.21103073858657
C          -7.79036191945521    1.47584378686740    0.06940190047634
C          -6.65630435938658    2.12754144111916   -0.42700391216332
C          -6.43532463261234    3.51307524169395   -0.26363679420110
N          -5.23697511995617    3.94725642186291   -0.74398238140435
C          -4.54978665898253    2.99594461888396   -1.24002149072896
S          -5.28180602158324    1.41564323459024   -1.20164843098445
C          -7.36181897807281    4.34178129234691    0.41016188494998
C          -8.38005475827761    3.64999397104945    1.07621568257958
C          -8.60199519972769    2.26323485938299    0.91790212973107
N          -9.69481791296236    1.79408255656113    1.57904279188308
C         -10.29198514395416    2.71488081018728    2.22749397518028
S          -9.61823223558542    4.31881585748769    2.09450420164922
C          -7.25893728747106    5.76766738197154    0.39687088441943
C          -6.86140624109197    6.47228428173865   -0.70570514048852
C          -6.59547919909056    7.86648807008619   -0.81897381142328
C          -6.22410284114906    8.26801928487973   -2.06547400636592
C          -6.21438866646553    7.22224563557564   -3.01925232163028
S          -6.70869251384014    5.71943513587434   -2.28001175181200
C          -5.81335707719489    7.18112344421433   -4.33993366626158
C          -5.09865200425657    8.09630002094832   -5.14771922194444
C          -4.65681313876238    7.55924356178245   -6.31823796910065
C          -4.99299038657775    6.18630831040861   -6.50777151464489
S          -6.02079140694614    5.66718598530915   -5.18771665182274
C          -4.62976060018538    5.39229424641255   -7.55975753115765
C          -4.87758106515116    3.99862692274569   -7.74155129803411
C          -5.00511980844357    3.00656115652439   -6.75397647953365
C          -5.36530742286391    1.66904338618153   -7.05084131335983
N          -5.50226222763085    0.87050413785608   -5.95712767372691
C          -5.14994720088657    1.46574016895274   -4.88327175543043
S          -4.66050011821731    3.11498920861449   -5.05027160725025
C          -5.52328133003509    1.20558846836812   -8.37390627997800
C          -5.33503323793967    2.18134919318235   -9.35957495458794
C          -5.00546882201756    3.52225477086440   -9.06861330240447
N          -4.85168884174812    4.30849297353564  -10.17004752256234
C          -5.01929630367186    3.65321858922179  -11.25049293064605
S          -5.40911405174235    1.96048323182540  -11.07760235950447
C          -5.85230412736551   -0.14148212754174   -8.72336962991813
C          -5.66539160195050   -1.28369114263735   -8.01421980076394
C          -4.92524611342686   -1.56397474912784   -6.80104791964478
C          -3.71570845366736   -1.02992512374614   -6.44813995146212
C          -3.01175424405060   -1.40165027267582   -5.28680475921929
N          -2.42307680825309   -1.65824773297798   -4.33534642279193
C          -3.05853606989070   -0.05415061091017   -7.22377377063061
N          -2.50089870383342    0.73641047891262   -7.84139682778299
C          -5.55234717018386   -2.72109959934103   -6.17969362978493
C          -6.37194588127928   -3.35716712978441   -7.14669856148152
C          -6.41817937260593   -2.52239776823259   -8.36611347616039
O          -6.99905013953709   -2.75116212472810   -9.40155681286047
C          -7.02592604931911   -4.53720361965954   -6.88453040524713
C          -6.92875553210626   -5.06513956669672   -5.59159471198824
C          -6.16579989175160   -4.37902051944373   -4.61619894495022
C          -5.45173277109799   -3.22053045338435   -4.89740489469671
S          -6.22870073427026   -5.18159508055155   -3.07669493940254
C          -7.24567611547700   -6.42598121120554   -3.75797859295614
C          -7.53385459515571   -6.24004616037175   -5.06872009111968
Br         -7.80044428692506   -7.85657956501706   -2.69227629511588
H          -7.95607117824095    0.30616579600734   -5.54628641938023
H          -9.61833122590299   -3.92637988913241   -3.44215156082296
H          -8.87698546278883   -0.81612965968551   -7.93587857027525
H          -8.70610363536018   -0.36285375047621    0.59521830866731
H          -3.57314254271167    3.12756794577760   -1.66315485570916
H         -11.16237696424281    2.54695456821193    2.83084128871882
H          -7.57410427423703    6.30642559831553    1.28046144779263
H          -6.65089578491639    8.51496844748327    0.03774307426665
H          -5.95994584792925    9.27757311618375   -2.32700236479861
H          -4.89365142691458    9.10093590230968   -4.82295506963476
H          -4.05918134134690    8.08615716693415   -7.04091184336918
H          -4.16980780337042    5.87843696969750   -8.41033895858708
H          -5.15808964771220    0.99719117706905   -3.91960371129602
H          -4.93194266983606    4.08638163734426  -12.22747290384176
H          -6.36147722904136   -0.26359035578374   -9.67617202595554
H          -7.59995445727893   -5.04004583923820   -7.64749720743907
H          -4.86142961491960   -2.73698728853833   -4.13634049290277
H          -8.14874133086113   -6.90681831109895   -5.64503720766961
