89
 SCF done       -183.184319212542          0.000672445623
C          -0.17810340942689   -3.01176901475999    0.54715646600858
C          -0.77947240195998   -3.96800312848409    1.32987028539784
C          -0.34421771610965   -5.30768714064356    1.41410342324403
N          -0.04754933828683   -6.41136064359217    1.52155203051141
C          -1.88875811942086   -3.77308836594472    2.17365024924804
N          -2.77897661838761   -3.70296214081924    2.89928762731969
C           1.01488060247973   -3.22480122911681   -0.26624925450117
C           1.37774384979632   -1.99543745428921   -0.86962168941539
C           2.47116803491363   -1.86353895800939   -1.68921368932720
C           3.24716589638114   -3.00304062381868   -1.92856512831567
C           2.87650495962723   -4.22819669386727   -1.32514574302306
C           1.77006147841161   -4.35994736875795   -0.49468282431031
S           3.96998930215422   -5.50844479085711   -1.75398849976978
C           4.89818342150376   -4.39579122266842   -2.72321598805297
C           4.41550863484562   -3.13010098872862   -2.72786807672495
Br          6.41628990197324   -5.00857449311527   -3.63777552088844
C           0.41146701799866   -0.95573776129158   -0.46870023734758
O           0.43080252896614    0.21312347094407   -0.80816620420752
C          -0.56353965765600   -1.62209200482123    0.40176341325210
C          -1.67706749467011   -1.05792181028821    0.97525948721050
C          -2.16365682700919    0.25336917834569    0.96563733965945
S          -1.44207642184414    1.58112576696793    0.09618754502119
C          -2.67916231970623    2.62303578778990    0.63601653821046
C          -3.62599852495688    2.03445987899580    1.42887184986299
C          -4.74562206475112    2.81786391358466    2.03074752920528
C          -3.34874907590102    0.65805857532085    1.63660076301885
C          -4.09478051113070   -0.24792848552832    2.45577730248903
C          -5.40664077750771   -0.16906546226784    2.78909900259865
C          -6.09408349450839   -1.11339951819286    3.60724556747213
C          -5.59252110562670   -2.29769142097493    4.04622371585717
C          -6.28096097293464   -3.21406690909591    4.87693831749332
C          -7.53774807951117   -3.11444281169385    5.46402635819840
C          -7.84462275122572   -4.22996746032993    6.23206007567922
C          -6.81611957371216   -5.19863317707463    6.23510465101368
S          -5.47983276090856   -4.72360935164511    5.28826829725289
C          -7.21275472116434   -6.28164353128849    7.04966234399739
C          -8.49897176890623   -5.99972195513375    7.56676860498298
C          -8.93532673376335   -4.70755820180852    7.06836175632691
C         -10.11434216822826   -4.07258987525657    7.33083591987915
C         -10.41999274645428   -2.80901506246464    6.78417094715507
N         -10.66728714015310   -1.78222022304580    6.33697562059532
C         -11.10451224438692   -4.63276394784694    8.16523335986180
N         -11.91629239345290   -5.07466087397119    8.84420608434712
C          -8.97572956907549   -7.00366253796862    8.39474549356480
C          -8.06895819772942   -8.05150617092017    8.51797853957754
S          -6.60271271129215   -7.78701069800619    7.58228687960600
C          -8.22375390747487   -9.22459006593665    9.29536999323617
C          -7.21870961514560  -10.22176957875616    9.31675245128497
C          -7.33838290921173  -11.42799084610525   10.09447049035306
N          -6.28277165340303  -12.25871269606441   10.17951365077671
C          -5.21779706975327  -12.02036761623890    9.46513968478157
C          -5.15042090563989  -10.88687820319348    8.58511580738722
N          -6.12938036881548  -10.01504186592508    8.57083003769777
C          -4.01951893116307  -10.67659410937661    7.76146321128494
N          -3.08962115288649  -10.53048895767289    7.10826198174988
C          -4.09720475431876  -12.88208257598309    9.59027251062548
N          -3.17514239767112  -13.55570052101340    9.67279013762633
C          -8.50221164599731  -11.72185478113597   10.82429121260267
C          -9.49260703814985  -10.72542477825759   10.83820713542944
C          -9.36248388409145   -9.49386487559665   10.08742234439648
N         -10.43205466320796   -8.71229553815646   10.23988579601582
S         -11.48551217531729   -9.43510974783011   11.20626524782898
N         -10.65809792524348  -10.77668105052170   11.49310026880503
C          -8.66812875707143  -12.99414651452953   11.50413408436217
C          -9.29309371481270  -13.12563908227075   12.72201029159882
C          -9.42805300466126  -14.36643017944432   13.38398768286766
C          -8.96495909629638  -15.53667138546528   12.85592107940095
C          -8.35278358712340  -15.46225965557652   11.59054565542305
C          -8.19837313586283  -14.19771579784645   10.91311340037363
N          -7.64321722382717  -14.44830341870101    9.74260898213715
O          -7.45146864712360  -15.76322929379867    9.69748946346281
N          -7.86473666584491  -16.39385324754106   10.79137756916039
H           2.72126389966372   -0.91187766518436   -2.13119293132915
H           1.53155643737760   -5.31626447471221   -0.06066433610416
H           4.86404572717806   -2.31891079380494   -3.27166561511476
H          -2.29533867057483   -1.74751368362259    1.53206437699197
H          -2.65739206392394    3.65699611927847    0.34714264727679
H          -4.51574949881018    3.87982663501509    1.98555791992399
H          -4.89837297886228    2.53414198115004    3.06992931089202
H          -5.67328529319535    2.65334684397052    1.48324923569157
H          -3.54353443076247   -1.09377471520572    2.84025137308047
H          -6.01180378623545    0.63811481320176    2.40816395225448
H          -7.10849217586379   -0.84883276895096    3.87407467251722
H          -4.60324326718252   -2.61383099211809    3.74792284994504
H          -8.18278925831643   -2.26516826041316    5.33486480938311
H          -9.92265637330187   -7.00913268065987    8.90278487452603
H          -9.68281382888517  -12.24226139280782   13.20266231735565
H          -9.91494271354329  -14.37247952408893   14.34773774979394
H          -9.06048211186246  -16.48504612214328   13.35716609337332
