93
 SCF done       -182.476974888503          0.000839667270
C          -4.94557724770788   -1.25499543472202   -2.28813299262590
C          -3.62281118997411   -1.60031865724946   -2.41709847770178
C          -3.15844308541932   -2.66543250809696   -3.21620120442944
N          -2.71759804117371   -3.51930438528283   -3.84445118011647
C          -2.54395785814934   -0.93631490272018   -1.79945156147593
N          -1.62200032957115   -0.42997364242673   -1.33601076422170
C          -6.05702433439239   -1.90255755593764   -2.97851306577864
C          -7.25221539960280   -1.20888773207021   -2.66513049821704
C          -8.47796248083277   -1.57191686625546   -3.16633105228665
C          -8.52890072463969   -2.68000998435924   -4.01890442353967
C          -7.33181817791168   -3.36988912132383   -4.32549417772179
C          -6.09144243042656   -2.99887699849889   -3.81940939520167
S          -7.62229367800723   -4.70917284150188   -5.39322308922146
C          -9.32420185173897   -4.32998181685515   -5.41250743649024
C          -9.65986393109100   -3.25530588623574   -4.65974129829428
Br        -10.49584211934759   -5.38780273222910   -6.42479414399205
C          -6.93786666360455   -0.09775429168356   -1.75127163054452
O          -7.73107591262060    0.70581757246926   -1.29357738951891
C          -5.49596434493486   -0.17173998989848   -1.49804483700729
C          -4.79253372519750    0.61060171533274   -0.61531912888595
C          -5.21106997415658    1.68599783463936    0.17756076796060
S          -6.81394136264618    2.37506956797046    0.20690015360358
C          -6.33160871145104    3.54286579151493    1.39908705700437
C          -4.99523049594269    3.38260917873031    1.77594223036448
C          -4.36297595181881    2.36429865636314    1.07048924736673
C          -2.91335889196395    2.03459062423613    1.25548052354200
C          -2.17565573965036    3.19580059828122    1.93600192774491
C          -0.83259860583136    2.78691326026694    2.28540779732761
N           0.21478223289184    2.44049619846913    2.57978181756353
C          -2.94565455835880    3.62000346567598    3.20263816778625
C          -2.19596159639445    4.60510412841893    3.95011457374288
N          -1.62371918249295    5.41107822012446    4.52212065345787
C          -4.30725690620205    4.21318988331647    2.81372383524661
C          -7.29514538802665    4.47904336615979    1.84395724570296
C          -8.58724590906466    4.58982051430565    1.34901372228492
C          -9.31804495049691    5.58761574342962    1.98296816834265
C          -8.58356193145489    6.25319659437550    2.98468280333391
S          -6.99064660112893    5.66004328038793    3.12047988566882
C          -9.41863922308106    7.21565889168757    3.59578886537477
C         -10.68025316689690    7.17315072563902    2.97499214637891
C         -10.65564493931311    6.15644926903478    1.93546803667680
C         -11.67301216556109    5.81215494022662    1.09481698000748
C         -11.53729004372366    4.80753763240435    0.11323610346584
N         -11.44336050325099    3.99588100648296   -0.69116433346337
C         -12.93627462651920    6.43936152811317    1.14234279729035
N         -13.96875803820233    6.93717424784508    1.16946809389742
C         -11.58985587298104    8.07134702747365    3.52819812059639
C         -11.04289276753714    8.79253320823072    4.57418065584483
S          -9.36124282723802    8.35990416408754    4.86369895329317
C         -11.69540188243819    9.75619628265511    5.40237813292152
C         -11.07318124969346   10.34348015473271    6.49900478293502
C         -11.70950581189319   11.23489834059450    7.35163021781989
C         -13.03441755576757   11.62994728533148    7.18362223652920
C         -13.68744658078916   11.09413113251337    6.04252175291245
C         -13.03695577024573   10.15807637540164    5.16498385328840
N         -13.84029453694433    9.77277803773064    4.17555770611211
S         -15.26168738976390   10.50500580050162    4.32621810869035
N         -14.93519240237963   11.34784355245068    5.65611582304349
C         -13.72251498220416   12.50874267903281    8.09634667054600
C         -13.27685435551934   12.73612689705546    9.37587902746512
C         -13.89109429153781   13.56954714055958   10.31108160584475
C         -15.05532709871511   14.38760123002274    9.93874684169801
C         -15.67065452866162   14.30270205346055    8.73894550343789
S         -15.19581125462789   13.24314305544344    7.47800066897003
C         -15.33192058385459   15.18880046864023   11.07624879381365
C         -14.41568534057613   14.88831335651705   12.09056184973777
C         -14.64962792937887   15.64856489937574   13.26035159158990
C         -15.70515672047521   16.48724141953868   13.10717666129643
S         -16.46489215873538   16.39046035333859   11.54999017251826
C         -13.52780549379958   13.86275528024118   11.63405302502898
C         -12.49095166905417   13.29487727108913   12.45383734412494
C         -11.98036399311723   12.06786598831714   12.35592024639627
H          -9.36802191812159   -1.01940617922083   -2.90926102679550
H          -5.21011334706689   -3.55921741747848   -4.08273089471224
H         -10.66266949432208   -2.88229490144319   -4.55876677729264
H          -3.74894981279911    0.35831379218923   -0.48910713344014
H          -2.43538988469249    1.82379261098967    0.29597589486277
H          -2.81526366856134    1.13235035414984    1.87017380485090
H          -2.10978948912515    4.05025049538210    1.25109072251020
H          -3.08814514728229    2.73913333369736    3.84097900562651
H          -4.17060410470031    5.23345329887894    2.43677069494447
H          -4.92966483627627    4.28274903044306    3.70995360532870
H          -8.95581422836105    3.95569470753924    0.56258573483167
H         -12.60764861457094    8.21041228476986    3.21358339089490
H         -10.04374783262628   10.08579988985455    6.70381798332328
H         -11.13440123973973   11.64084933688190    8.16875461494841
H         -12.37591488142362   12.22940407954638    9.68700665679656
H         -16.54130922950631   14.89241158827761    8.49684058475140
H         -14.07231100342301   15.58053776023134   14.16463053332401
H         -16.10670514343376   17.17686283177204   13.82384242006333
H         -12.14307810402927   13.94396494247717   13.24906917004164
H         -12.33434451462773   11.34862757629024   11.63787638012227
H         -11.20665770297584   11.73162804420911   13.02465276385972
