106
 SCF done       -212.680661492009          0.000640380154
C          -4.27241592028414   -1.20013615696950   -2.11011228829359
C          -2.91784498029508   -1.22882881448544   -1.90920307251030
C          -2.07272924337426   -2.26377208018633   -2.36314071956982
N          -1.33522818358564   -3.07551797659484   -2.70263921665375
C          -2.17299754775896   -0.26079070172240   -1.20229244928839
N          -1.49187451380026    0.47269197945901   -0.63939225738407
C          -5.04607472688372   -2.21281097975953   -2.81920672849241
C          -6.42141601683382   -1.88533147607209   -2.73162858284076
C          -7.40411723772738   -2.65692841131122   -3.30165243313683
C          -7.01166283799002   -3.79863234273631   -4.00793143680959
C          -5.63500180781335   -4.11572671835889   -4.09486104890834
C          -4.64187396245273   -3.34248623186008   -3.50786541811324
S          -5.37020740356097   -5.56666378694973   -5.01428819474820
C          -7.08813996466603   -5.72438854544670   -5.26639674011070
C          -7.82429050708972   -4.74315519844507   -4.69264657251852
Br         -7.74829675291460   -7.16825465621345   -6.26439997242479
C          -6.58128507974386   -0.64427273485859   -1.94796771117625
O          -7.62082528051386   -0.19076679026963   -1.52346826016703
C          -5.19935890117753   -0.16835899768104   -1.67422176086097
C          -4.88641553534834    1.00025147476642   -1.05948239004116
C          -5.78958945780851    2.09346747710340   -0.85201351377300
C          -5.66140710573891    2.88602954225313    0.29575691808969
O          -4.69817481681207    2.47780003704207    1.14422569958684
C          -4.12828840764499    3.33812099864053    2.11248644645424
C          -6.56444091475638    3.95917936610781    0.56234340750964
O          -6.48900743446082    4.50903220943670    1.81595828260053
C          -7.68979062621060    4.69105801526492    2.54397002968659
C          -7.49595007092437    4.37656332446491   -0.38861048667460
C          -7.60974034863996    3.60021395320988   -1.57011158752685
C          -6.76976895747267    2.46333551886407   -1.80217188518125
N          -6.98008912664780    1.92691218630605   -2.99998023285496
S          -8.15000781485658    2.74303950087449   -3.73981922719594
N          -8.42525007757822    3.83947556765422   -2.59278163948829
C          -8.28411583517169    5.58576734629708   -0.25649079842026
C          -7.77376332914334    6.71215806591694    0.33634537011545
C          -8.46067870160130    7.91845563783370    0.47376732674588
C          -9.82079623077827    8.08051752650321   -0.03473620534505
C         -10.50119681296140    7.10279041094806   -0.67872597551499
S          -9.87494499828367    5.53921128016145   -0.98820195987416
C         -10.18457527755095    9.41374027013147    0.29602555325380
C          -9.13555440664593   10.04583759161822    0.97160315107832
C          -9.46838661490554   11.37572362777505    1.31714854687753
C         -10.72153193785482   11.70507106362197    0.90836755212402
S         -11.55488386966731   10.42887598162728    0.08996898597893
C          -8.03935200132887    9.11619436227767    1.08927626478047
C          -6.77726788816832    9.27837833478177    1.69812697366226
C          -6.32873982139561   10.38276081388706    2.35031503518973
C          -5.05068792671527   10.49473163841898    2.96999996462153
C          -4.65830221299684   11.71865333355909    3.53094279789885
O          -5.49979782917903   12.80797366011564    3.35933917305308
C          -5.26817321539711   13.48488139604521    2.13365078828196
C          -3.43435911502770   11.89555482201704    4.21107911869284
O          -3.05511574716623   13.03498412287395    4.82323076674058
C          -3.99973910820576   13.98871626020633    5.27029670508455
C          -2.45451506211130   10.88112434761763    4.21308718615295
C          -2.81117413833009    9.64028386125902    3.63177724285602
C          -4.11065851391838    9.42758791914909    3.05557400704482
N          -4.26159437891141    8.17833170405351    2.62871508087936
S          -2.91004883276888    7.34933556232835    2.91868261009792
N          -2.06572003661271    8.53815827293825    3.60567543708267
C          -1.20184688089901   11.12065496779636    4.84387478932742
C           0.00684230255218   10.53894455259182    4.60924803048991
C           0.49501235389656    9.72340510983178    3.52340606532745
C           0.02829097860820    9.71729099664673    2.23288356147825
C           0.55037111402788    8.90562907923170    1.20766213119910
N           0.91231694513398    8.24631832645040    0.33957177942583
C          -0.98602353066390   10.56950268578954    1.75674752740917
N          -1.78111631568089   11.26038386632277    1.29766359964490
C           1.72397993028577    9.08129076098472    3.97687754320359
C           2.10040834968423    9.64843455619140    5.22038441286165
C           1.07770939664432   10.63315487055353    5.63391236012076
O           1.08830540216369   11.33874051911535    6.61757512536451
C           3.24703458089573    9.28192151931106    5.88097182409225
C           4.05512218740746    8.30235483885609    5.29287372152018
C           3.66210337194223    7.73136594282409    4.05963764036700
C           2.50611127003283    8.10775258445660    3.38612650530741
S           4.80058696604155    6.53516865553789    3.51773098819400
C           5.77870159514806    6.81992350248975    4.93292250972583
C           5.27933620261892    7.75867063013471    5.77081180634547
Br          7.36677469086132    5.85039034277276    5.17099545202562
H          -8.44389718893257   -2.38437120050960   -3.21143836692938
H          -3.60760378492991   -3.62811255692753   -3.60115838011053
H          -8.89607641866094   -4.68640903024157   -4.74868174510934
H          -3.88574659490135    1.15866651591172   -0.67948743947246
H          -4.71090379658812    3.34024161319859    3.03547001331480
H          -4.03242295067531    4.35998973692454    1.74356954577473
H          -3.13892576240158    2.92360460551613    2.30869243397996
H          -7.98096616673913    5.74457422029356    2.56235335255689
H          -7.48421683417603    4.36132704226974    3.56388363070051
H          -8.50634084047357    4.09776605710920    2.12890346901732
H          -6.75578177837813    6.65913441831860    0.69842506294185
H         -11.50059840219922    7.25033922366087   -1.05715089800354
H          -8.83181150111563   12.06653232251399    1.83824322087384
H         -11.22724785298822   12.64210186144210    1.03740973175066
H          -6.10639827618534    8.43399084046804    1.64048074838511
H          -6.96312473100431   11.25073850651281    2.44019816679073
H          -5.44391225295751   12.82678608974097    1.27728875419819
H          -5.97038854741057   14.31671346749604    2.11179358054650
H          -4.24234109054867   13.86274190890931    2.07673410314300
H          -3.49355496148786   14.53629555962233    6.06624006501722
H          -4.89962032917672   13.51356031182391    5.66317552035837
H          -4.27558677533641   14.68604883373749    4.47693724838990
H          -1.21901285603304   11.83926100063837    5.65716296604339
H           3.51552874901026    9.73689019694102    6.82152191412499
H           2.24423544426040    7.64302831725430    2.45001528732818
H           5.75292999655808    8.05760406468719    6.68807498419257
