99
 SCF done       -194.966324157437          0.001077237168
C          -0.34078846487944    1.91708421581033    4.96830903693234
C          -0.97456435649995    1.58426395958579    6.13734246773902
C          -0.32386539774624    1.01426205427455    7.25473444963527
N           0.12093312425563    0.55173638212857    8.20645807503053
C          -2.33348452729520    1.76014872089697    6.47314293337474
N          -3.39727375504622    1.85091111493271    6.89938149830032
C           1.08593568786719    1.74494938991788    4.72327188213451
C           1.39980418725817    2.28730195887512    3.45415963079554
C           2.67195072670559    2.28199611271690    2.93549212797065
C           3.68575784483237    1.69986474884768    3.70243162827576
C           3.36325870219174    1.15212350562638    4.96798916847426
C           2.07853967110342    1.16724768443726    5.49505578946401
S           4.76091036142202    0.47444240485429    5.74514142260194
C           5.74604020420424    0.92861602622324    4.37985642132806
C           5.06514167521223    1.55691901990252    3.39189671150465
Br          7.57718859500765    0.52769796965073    4.38791385802189
C           0.17631778025291    2.82310934762929    2.82813691583714
O           0.12163275935096    3.43084752235184    1.78353492030360
C          -0.93092057440416    2.49617227087428    3.76821790642947
C          -2.27176884155825    2.65825653637431    3.57627109344574
C          -3.01687845790172    3.04497855430652    2.43596942104819
C          -2.65044285807090    3.26331911742537    1.01423291010305
N          -3.66300471599972    3.50075012303464    0.24674004693024
C          -4.77586110315649    3.46037080061415    1.05379170671642
C          -4.38963697431224    3.20322804237040    2.42388536156028
C          -5.57948901197386    3.13065018153881    3.25991638775023
S          -5.47377467229968    2.94770251793953    4.97523163519620
C          -6.65318273761795    3.29384310961919    2.41959774334024
C          -6.14980204770786    3.51478167924431    1.02228964625792
N          -7.17678859964534    3.72086742127157    0.17765464102197
C          -8.26855483915917    3.67745717948626    0.90563119586295
C          -8.06877243034864    3.39235734587554    2.31118542574499
C          -9.08608077913586    3.27705725005127    3.25000067089050
C         -10.47292816571539    3.68188252402409    3.03698627374304
N         -11.25187816785989    3.55633237645463    4.07443115624783
C         -10.48745755043970    3.02838010723954    5.06398061797197
C          -9.09310866068257    2.82145623814382    4.58893618599968
C          -8.35844436804338    2.21555184754361    5.59182093067038
S          -6.81379168330273    1.43537044682611    5.42708056725186
C          -9.22949646161177    2.09754147026453    6.73442792788473
C         -10.56073055570103    2.56420471579913    6.34937389723340
N         -11.44595846737248    2.40694803503976    7.38893850914698
C         -10.76711413092719    1.91227175639543    8.36658714818744
C          -9.32383057974972    1.71463408232630    8.05867419199846
C          -8.32896355876857    1.32712587235185    8.99415479108291
C          -8.65371814799810    0.76323626675308   10.21755247200575
C          -7.73609220730093    0.34681838920209   11.17122409814398
C          -6.30332458731563    0.59555729728708   10.98889671547961
C          -5.76294795894726    1.15712534897537    9.87955225550954
S          -6.66924326000870    1.64917254674500    8.52577436866030
C          -5.67287385392004    0.14839566003480   12.18082692822336
C          -6.63646556885554   -0.35837209651215   13.05781748114863
C          -6.06505130303563   -0.82281885085759   14.26405707564524
C          -4.71752485713077   -0.65603949157847   14.27057151129056
S          -4.08543547269932    0.06133339930182   12.82363572134821
C          -7.93068659407383   -0.27384569172237   12.44315324079528
C          -9.09776948941975   -0.76057258348509   13.05994457054189
C         -10.32017454067072   -0.91558441196972   12.46724282254850
C         -11.46761971965001   -1.36326512865015   13.13992067758379
C         -12.71394484851676   -1.36177822656062   12.56016807057164
C         -13.94375941982172   -1.88449380064299   13.11472123730124
C         -14.10088040147931   -2.51345505598812   14.32551619831982
C         -15.33015988445442   -3.00985407909830   14.80507732641449
N         -16.29724809371069   -3.43482806495357   15.25570412060403
C         -13.07472904211187   -2.75815684986100   15.25979240248243
N         -12.29511587520068   -2.99773543353430   16.06927629865865
C         -15.00712636156139   -1.64964061837873   12.14168733302237
C         -14.45155556487189   -0.97550573938194   11.01668480150274
C         -13.01530394757064   -0.76235967228834   11.23820862084236
O         -12.25031619942182   -0.17822568402914   10.49004366710594
C         -15.20732285167109   -0.61744589346664    9.93790318804423
C         -16.58405894740560   -0.93465008825581    9.92946242562164
C         -17.14848698159046   -1.61443556124254   11.04711794080195
C         -16.33982600917242   -1.96340526261033   12.15439530405818
C         -18.52156505555584   -1.93138260409076   11.02493973295405
C         -19.30070331975342   -1.59466450525906    9.95120986547479
C         -18.74389737117259   -0.92383627478783    8.85241159068314
C         -17.41403980333386   -0.60002023908444    8.84186832244972
H           2.87580197658509    2.70960119256713    1.96640298827185
H           1.88850459607249    0.73619001424909    6.46328659318474
H           5.51559293860704    1.90386107820904    2.48055631792738
H          -2.90696482368863    2.41348000820990    4.42290119301966
H          -1.65236445607169    3.24433035226568    0.62180318087758
H          -9.22387631312973    3.83238864631073    0.43496401244552
H         -10.86581476787662    4.08168562278643    2.11871998382555
H         -11.24863415997132    1.67884030261678    9.29818181739525
H          -9.70784762331866    0.64668403892575   10.40852346983288
H          -4.70190661401098    1.31945796257074    9.76818311794202
H          -6.61284083740719   -1.25360484918956   15.08213395533776
H          -4.02883815954574   -0.91431448004319   15.05109754244183
H          -8.99488529530998   -1.04816005544948   14.10025649341835
H         -10.43695821943411   -0.70515931706438   11.41981529322362
H         -11.35263766468099   -1.71289622951127   14.15749556337919
H         -14.75946226234616   -0.10188618451009    9.10100572207580
H         -16.80054250987146   -2.47353093862580   12.98528555310102
H         -18.94647091663421   -2.44750329646082   11.87344203803896
H         -20.35130152088473   -1.84383007630147    9.94341318323757
H         -19.37347069943965   -0.66506183895955    8.01422405013373
H         -16.97841897724110   -0.08318273268362    7.99933270613944
