86
 SCF done       -188.059422657125          0.000603445369
C          -2.90459879914586   -1.66977476047850   -1.41554748417318
C          -3.36955444291586   -2.87719967330145   -0.96810956897811
C          -2.66183324603694   -4.09258566692267   -1.08743543948860
N          -2.13735660607114   -5.11073716119993   -1.15946522412561
C          -4.60090158952018   -3.07976024913241   -0.30825307802460
N          -5.57645297265359   -3.32376645939328    0.24571964713612
C          -1.60720576998909   -1.43164495580992   -2.03213307468170
C          -1.45265136537776   -0.04102545852259   -2.25565845895704
C          -0.32520674235140    0.49469554193177   -2.83025133742582
C           0.70120935689722   -0.38151077645868   -3.19726505572928
C           0.53679757349025   -1.77004260803579   -2.97212455088382
C          -0.60370899313727   -2.31231138356709   -2.39478322839151
S           1.91994089620430   -2.67322179971360   -3.50959078413376
C           2.69090753765691   -1.19531867864815   -4.02098838664050
C           1.95229357513236   -0.08116890387621   -3.80143956490630
Br          4.39616799524554   -1.26277445909815   -4.79704277009294
C          -2.66885330444571    0.67016770873557   -1.81773395524348
O          -2.90703575170935    1.84749673775720   -1.96990231820036
C          -3.57588132433032   -0.38525597784258   -1.28599996332772
C          -4.86107550411859   -0.17635551282010   -0.90716143997054
C          -5.44440392469183    1.10819680405656   -0.64317489152539
C          -6.75195775079438    1.40898969272662   -1.02360049573677
N          -7.36327587367757    2.56886940186301   -0.85148794555653
C          -6.74889091561996    3.57437418295065   -0.24348282868333
C          -5.42523363706953    3.39930807969791    0.24108138152649
C          -4.76549384615999    2.14185101898590    0.04676689578046
N          -3.56715023407448    2.11917159071517    0.62874585862806
S          -3.28849722377771    3.54702736597189    1.29972205202699
N          -4.67963943678449    4.26296459949228    0.92528912708124
C          -7.45464295166390    4.80066359652076   -0.06964805830971
C          -8.73047655542682    5.08400954666365   -0.53131471356871
C          -9.13014983856990    6.36713764967725   -0.17619110570579
C          -8.14692431708434    7.05546093835553    0.56674535463476
S          -6.73529104110645    6.12856643205124    0.81137314301666
C          -8.65101301767615    8.33987099710793    0.89050132098407
C          -9.94388562586163    8.46841292068865    0.34753052594186
C         -10.28767501814938    7.23299518324626   -0.33833619951457
C         -11.45264687641234    6.94935058928376   -0.98712143639503
C         -11.68363754212270    5.70776285530629   -1.61798711584317
N         -11.88534060756747    4.70428769433345   -2.13379003708659
C         -12.51362082598546    7.87702998426875   -1.06953806535527
N         -13.38255403275406    8.62158321558855   -1.13950685535132
C         -10.52429109364760    9.70522086002034    0.61531616911110
C          -9.69207764709024   10.51673277429304    1.36605012683727
S          -8.16076040313553    9.73594843842588    1.73794996419674
C          -9.96733728428542   11.83807957870140    1.82671279348982
C          -9.10534897905524   12.54086269705017    2.67214611305240
N          -9.28397222759617   13.77148668325232    3.11124494770734
C         -10.36228827752343   14.47095113393734    2.78429973464389
C         -11.34991799680681   13.87210315533219    1.95726699251435
C         -11.14447367586105   12.54049977103243    1.45976902395857
N         -12.15303168259068   12.14435947813229    0.68329643858118
S         -13.23783376501763   13.32311493756235    0.59439996792668
N         -12.49762943219166   14.39443399197456    1.53079305907132
C         -10.56167432182727   15.78892618401960    3.30579652380582
C          -9.67571684956421   16.57614891042964    3.96152170929325
C          -8.24674998584178   16.45670108918869    4.18880390609641
C          -7.33186580026413   15.91893185470174    3.32810119188018
C          -5.94397393621835   15.89167953677999    3.57533218443019
N          -4.80985754273061   15.83176580302956    3.74204932917142
C          -7.65718414472456   15.42631018317903    2.04564985693052
N          -7.83542940236708   15.09985742175981    0.95972339596521
C          -7.93721490401953   17.24076535176733    5.37855596875798
C          -9.07064720326780   18.02380749143806    5.71806456282793
C         -10.17611862713957   17.71377281016571    4.79062109515420
O         -11.27000707405514   18.22236036216614    4.73940844736738
C          -9.06934768580306   18.90222382506081    6.77520112407290
C          -7.90215912107620   19.00312581930547    7.53886181068327
C          -6.78158171199717   18.20535167501739    7.20079482740390
C          -6.77815191849243   17.32426068526862    6.12668520484866
S          -5.45246983568274   18.47930911931699    8.28473529640700
C          -6.40333152988616   19.64855794934518    9.16279292423870
C          -7.65307740873356   19.82501524090803    8.67211048197810
Br         -5.65716454284276   20.52155016772270   10.64464979939719
H          -0.23795148432768    1.55771102873939   -2.99160462426394
H          -0.68497227294733   -3.37676619967270   -2.25141034781561
H           2.27474366057014    0.91174401838866   -4.05649513761924
H          -5.53295024303233   -1.02012235542748   -0.81081064382415
H          -7.34054508574723    0.66432995682475   -1.54319857113629
H          -9.30140520523583    4.36629372894683   -1.09093390537752
H         -11.49844608784159   10.02846912687442    0.29632320372389
H          -8.19200761894491   12.06882166177020    3.01272256512723
H         -11.57627866108991   16.16412566382871    3.22879845198015
H          -9.94195162507096   19.49254327089286    7.00679204293519
H          -5.90515320875069   16.73164216269079    5.90826325427099
H          -8.37160558598784   20.50563311299087    9.09089886543010
