98
 SCF done       -192.417957656137          0.000876161757
C          -5.06464392276373    4.44515056096941    5.25795716877038
C          -6.01559328864894    4.47957251645725    6.24310083175001
C          -5.70826491119148    4.49042002111799    7.61849489663921
N          -5.50621592297883    4.49558009946505    8.74866881242201
C          -7.40389116393272    4.56592523477563    6.01335481318775
N          -8.54472463084760    4.63247007689539    5.89826435745060
C          -3.62158783373755    4.41685241894747    5.47749586817991
C          -2.97369069709103    4.62805931984055    4.23657690261237
C          -1.60684650568888    4.64239124185121    4.10383199516562
C          -0.83880974285845    4.46508963807719    5.25983841063599
C          -1.49492314019917    4.25365068557680    6.49434343558115
C          -2.87818233465836    4.21574310856113    6.62389971159432
S          -0.35847226260558    4.06228159950859    7.79484180456078
C           0.96450477523356    4.29641112245799    6.68077071623747
C           0.57771527892840    4.48322618301592    5.39784230494225
Br          2.72121082408590    4.28939035554904    7.32748213865520
C          -3.99452280639732    4.79856645848491    3.18621225915366
O          -3.78547111430451    5.09545860920045    2.02223335113560
C          -5.28342900252389    4.53597957302958    3.82870198183975
C          -6.45756456972340    4.27287637610277    3.16409196606819
C          -6.73368470799650    4.36391032125619    1.79598615693817
C          -7.95139859457439    3.91971947447354    1.23405112439048
O          -8.84487117161050    3.33124138840659    2.04782723809800
C         -10.20109836774815    3.25952175382223    1.64855468050323
C          -8.05084006630932    4.18587839778040   -0.14128006937468
O          -9.10425093807475    3.83427253482439   -0.95982126333810
C          -8.97545240096559    2.54065103286598   -1.52619141541580
C          -6.95346563590750    4.89644719383925   -0.62604945162350
S          -5.73055566285545    5.11018199873026    0.58579885312813
C          -6.79616943396179    5.49937754725057   -1.90597739299685
C          -5.77372726687042    6.39656296257464   -2.10601050841118
C          -5.60199017629198    7.18255133381161   -3.23682901691236
C          -6.34875431002776    6.90961170492597   -4.46754698067690
C          -7.39553981702144    6.05315172739882   -4.50811267680283
S          -7.99865000450034    5.18484209016999   -3.14907027991083
C          -5.74528344775505    7.74605371600804   -5.44787379331459
C          -4.73664405997951    8.52205015480509   -4.86026280319000
C          -4.13196714990571    9.39901552524404   -5.78737632699306
C          -4.67572949308793    9.26980059634394   -7.02527209072596
S          -5.94470488289066    8.09404715188340   -7.11891940672641
C          -4.66948207288756    8.21731122642920   -3.46025987574308
C          -3.90588692616871    8.82743703611154   -2.42831093928804
C          -4.40441168240100    8.83011756000606   -1.16052122411135
C          -3.76504621077571    9.04053754937001    0.07953151676686
C          -2.48402381410837    9.48121457967980    0.43234241640512
O          -1.67384786138076    9.95916437180447   -0.53341801133430
C          -0.28798565985919   10.07032830210412   -0.26400889445328
C          -2.22889778604663    9.35590805703695    1.81392240986205
O          -1.08996725122247    9.83356055736664    2.40420814332438
C          -1.27821697669332   10.71741238123091    3.49359826938720
C          -3.26973789622305    8.72041599779635    2.51301116914447
S          -4.65231852898955    8.52532820248589    1.47336630479487
C          -3.41368083304051    8.16398261470076    3.78826204769661
C          -2.54648794258425    7.81221795736530    4.79189390397999
C          -1.11644674163487    7.74626370458562    4.93275998629071
C          -0.18394384853521    7.58451759130521    3.93592037182327
C           1.20454074242747    7.52420862325574    4.15817241322188
N           2.34751786398524    7.47923634157466    4.26668778388294
C          -0.49330089330383    7.31557591301836    2.59045568785060
N          -0.67978508619696    7.01973521906782    1.49612356198739
C          -0.82485657920282    7.61898551342204    6.36170054715896
C          -2.03950362390240    7.38327518644328    7.05353864751321
C          -3.15374225104867    7.44416155241665    6.09295319371918
O          -4.33249833759595    7.24296678597516    6.30533487106558
C          -2.08900510971935    7.12946552691805    8.40219077456878
C          -0.88006311692351    7.12126173229393    9.10650633694065
C           0.32559035810737    7.38481125499361    8.41356538180409
C           0.37438694617399    7.63107155380399    7.04549407193897
S           1.70012412168884    7.31842032440239    9.47231891547504
C           0.65355917758573    6.92957013925749   10.81063060644231
C          -0.65933255618871    6.86095575566134   10.48624260476820
Br          1.39548450607619    6.65191531457831   12.50954900865398
H          -1.14709147441914    4.78832706321815    3.13867071129969
H          -3.32913864815010    4.03860222022348    7.58552894375595
H           1.26216931623497    4.63796665924982    4.58341561746194
H          -7.29698214205265    3.90879369001041    3.74515088742034
H         -10.76466580816685    3.11078484020930    2.56865836008627
H         -10.37626464258343    2.41525860270635    0.97717424910669
H         -10.52259271803995    4.18105727011170    1.16095624858665
H          -9.85977925636825    2.39537224785725   -2.14269125676301
H          -8.93127469136080    1.76731252534262   -0.75228306299255
H          -8.07855514331889    2.46652531102574   -2.14888947588481
H          -5.05664987107351    6.48978382326847   -1.30273215063465
H          -7.96977936525079    5.88218564905798   -5.40513287532951
H          -3.33720858822123   10.08356884967805   -5.55357737784622
H          -4.41179721610734    9.80189371210549   -7.91831762637816
H          -2.94402324067781    9.26272031577864   -2.65293137113442
H          -5.44173703729133    8.54291380665084   -1.04291599888099
H           0.18485827595473   10.21008200407510   -1.23520989131403
H           0.09214345282281    9.16269413963066    0.20795003560840
H          -0.07144634844802   10.93034815596863    0.37365741920454
H          -1.83376535191201   11.60635432322757    3.17797704212686
H          -0.27775015658293   11.00629914179816    3.81186403361445
H          -1.80511748830474   10.24761771881094    4.32799784262161
H          -4.44813759589915    7.94303004582063    4.04701690584228
H          -3.02780045662950    6.92904431907655    8.89450861411521
H           1.31896825949323    7.82028662575202    6.56270022056706
H          -1.44164562648589    6.63084869955149   11.18599364984327
