110
 SCF done       -213.777939251254          0.000839264186
C          -2.21973529774885    0.91007416572525   -0.91015277999696
C          -2.02693630491726    0.09304308449300   -1.99765936979149
C          -1.23228963526536   -1.07219146304444   -1.97866249512786
N          -0.59418939726262   -2.02507851404509   -2.03051585310567
C          -2.58568192420674    0.28380543724718   -3.27724680066251
N          -3.00786601869739    0.37677417901921   -4.34284621194133
C          -1.65057126783495    0.69627879848262    0.41647968962353
C          -2.11244003427979    1.72044217751691    1.28066748758756
C          -1.74597284045488    1.79888090388799    2.60167760146411
C          -0.87807371147744    0.81946510884015    3.09679574744561
C          -0.42172477734891   -0.20003133558546    2.22777346398170
C          -0.79494251482011   -0.27978287714905    0.89137258876391
S           0.64384323815411   -1.30414174008776    3.04181659695358
C           0.46554057917754   -0.39396437784611    4.51800233003507
C          -0.35050311127728    0.68171789534947    4.40937905974712
Br          1.37400812157763   -0.94735359301799    6.06223634026324
C          -2.99738537502058    2.62631032553964    0.52662183379130
O          -3.57315654475804    3.60591806092189    0.96530299898572
C          -3.02502552182419    2.11391718703098   -0.84799979988795
C          -3.65804612565023    2.69402543371554   -1.91748049888273
C          -4.46806693114462    3.83309991110343   -2.00152014296010
S          -4.98828798092435    4.82465199876598   -0.66076706546797
C          -5.91919819591530    5.84427538370119   -1.70942452765677
C          -5.78260707324538    5.46048339509555   -3.04801341656469
C          -4.99675714846609    4.32142197455170   -3.20645120919253
C          -4.88416866116599    3.70070266202774   -4.56328205012861
C          -6.28028313153989    3.33110817277271   -5.03800461695200
S          -7.28688444196856    4.84707215459076   -5.18305118165907
O          -8.56171935281754    4.66466232897235   -4.54235025994182
O          -7.32077985554860    5.23703324309164   -6.56992488271751
C          -6.36847201328681    6.12035046148741   -4.23503565787146
C          -6.73037696918383    6.89265076262171   -1.21890173095791
C          -6.79880578075009    7.27765978886175    0.08220296296583
C          -7.66943786212195    8.29057347439942    0.57688316510576
C          -8.74992981487298    8.77176941419408   -0.12679799904545
C          -9.59579169196580    9.79561430027058    0.28725337726138
C          -9.46653077147199   10.36989410925039    1.63571158583877
C          -8.49838586556336   10.02586085987193    2.51499519201499
S          -7.26348866014693    8.88556248472926    2.18177483298373
C         -10.55296421682678   11.27480373984787    1.76559523530264
C         -11.30455870512045   11.27658956206409    0.58686258105944
C         -12.39878901023024   12.16807686113105    0.65670269813380
C         -12.45077807386899   12.80090508233919    1.85718096125104
S         -11.18164647286842   12.35142308920392    2.94765562886787
C         -10.70726548269382   10.37513014041158   -0.35771358435160
C         -11.21221181639347   10.17345124523726   -1.67341492771799
C         -10.52600803143009    9.63469732887676   -2.70843549023323
C         -11.01374365290288    9.33057149208180   -4.01477704299489
S         -10.24231796051926    7.99673204522307   -4.84078421647176
C         -11.27824840874359    8.17190459398154   -6.22540687180514
C         -12.16618708815935    9.22314716323502   -6.03511955163210
C         -12.01303499487706    9.87925412797077   -4.79799121075353
C         -12.77935021869479   11.13933369090859   -4.53522100335100
C         -12.46097666974146   12.15213620592739   -5.62486170576489
S         -12.85479531725291   11.47785681008320   -7.28343705574974
O         -11.68268548644509   11.59079684034674   -8.10476057590419
O         -14.06606221002852   12.09031890318427   -7.75582520306069
C         -13.18908854750244    9.69554858330750   -6.98611369703530
C         -11.15838618177884    7.31602610821310   -7.34535118822772
C         -10.40355103575792    6.18770535076865   -7.37327667750831
C         -10.26751920218248    5.39466654304596   -8.53442531484070
C          -9.71275445663188    4.15235149776037   -8.61381616929445
C          -9.34248253290848    3.21359930659682   -7.57896331794247
C          -9.93477268791059    3.08721055512532   -6.34975784335017
C          -9.51812442853241    2.15527803898543   -5.38080984339997
N          -9.16714368544194    1.41943545067017   -4.57156557436431
C         -11.06691265218729    3.82355067646745   -5.94303321821632
N         -12.03691561386162    4.33591166931639   -5.60565428338586
C          -8.38386266498933    2.28156328384357   -8.16676527262258
C          -8.31095443709570    2.52158276126496   -9.56212239913093
C          -9.21060203892658    3.64133842412547   -9.91262196192255
O          -9.45404318808516    4.07538268778115  -11.01562171832626
C          -7.50661349835736    1.78626398068995  -10.39847215850566
C          -6.72648083627291    0.77232048231689   -9.83247479591356
C          -6.80824335996820    0.53604610881537   -8.43995089714565
C          -7.63627347342441    1.26812418301795   -7.59688064073899
S          -5.76100562394547   -0.75996171095416   -7.94624658204643
C          -5.23918521288322   -0.96896278657125   -9.59696300855308
C          -5.81625074167775   -0.11297890451384  -10.47311103029735
Br         -3.98274739739909   -2.29888399556309  -10.00845200039594
H          -2.11516794921572    2.59137635440315    3.23347579326424
H          -0.41736740048495   -1.07537605438370    0.27139436556139
H          -0.57122413153430    1.35132680079349    5.22044397949474
H          -3.50869835149174    2.20212622497181   -2.86758860969961
H          -4.25347840364547    2.81128129936188   -4.56870898880178
H          -4.44999715597547    4.41882679241104   -5.26553891055009
H          -6.79343828532892    2.67382283866368   -4.34115471567343
H          -6.26480371692968    2.89910947460364   -6.03437139991514
H          -7.08931825154503    6.89717769887688   -4.00243929729713
H          -5.61259884035007    6.50410351378303   -4.91765443270563
H          -7.34013350692894    7.39459987595219   -1.95630830350684
H          -6.12938545990671    6.81704569482935    0.79675104367905
H          -8.97748781398920    8.26627273837217   -1.05136593133185
H          -8.43151969750814   10.46311792320156    3.49890162721294
H         -13.11204128889853   12.33405188994283   -0.13023968559465
H         -13.17033127905565   13.52452425965971    2.18713612009000
H         -12.23811840523134   10.48340430629329   -1.81824562706539
H          -9.49841939630015    9.34220526265589   -2.55614486369651
H         -12.50657614457480   11.56353775942517   -3.56928916325222
H         -13.85357710073758   10.93438094433660   -4.53086204775329
H         -11.40182362323308   12.39226616970596   -5.64982308115948
H         -13.05359502404049   13.05717398780575   -5.52937402023995
H         -13.15452509672135    9.20670785870546   -7.95366404066547
H         -14.19790286238393    9.65560085115828   -6.58099706656241
H         -11.74184327870663    7.57790505189583   -8.21836850946288
H          -9.85149097201933    5.89210185229426   -6.49109259056617
H         -10.54763193327693    5.84243415798580   -9.48278892423821
H          -7.48042365707118    1.98618611602073  -11.45817720060538
H          -7.68255986643634    1.03139001144464   -6.54692498159894
H          -5.60990312607046   -0.10405460827745  -11.52770791295526
