110
 SCF done       -197.351420465105          0.000716179635
C          -9.79267995993576   11.02709304664473   -0.50103119787876
C          -8.79494196293922   11.88913778318006   -0.13222614660852
C          -8.97790594420727   13.27761910798128    0.04392854558592
N          -9.06194298543676   14.41092289112748    0.20456324334381
C          -7.46505974012683   11.52534294818033    0.17126529507711
N          -6.37548314434140   11.31425873149592    0.46600411063119
C         -11.19091785605584   11.39022316747593   -0.69408573775739
C         -11.93508001782052   10.20747053458078   -0.92048442649878
C         -13.29282070126317   10.21363759771798   -1.12920663468009
C         -13.94608679998693   11.44999618184487   -1.12989389461048
C         -13.19077170363730   12.62913744280971   -0.92340597789284
C         -11.82020976583968   12.62088313685916   -0.69872606747237
S         -14.18935909715230   14.04806161264478   -0.99301820591947
C         -15.58938612011584   13.05277819887327   -1.28955651318347
C         -15.32516332618128   11.72531559959697   -1.33641653568514
Br        -17.26811457180564   13.85802068577443   -1.51393800199224
C         -11.01488529453212    9.05931919974680   -0.97350865815113
O         -11.31200596369901    7.93109441299957   -1.33910734292810
C          -9.67709464724724    9.58776643600521   -0.68823013662289
C          -8.48333956835909    8.92127055133838   -0.78246332743459
C          -8.16363357380636    7.54928408955195   -0.83658851410907
S          -6.63482147983200    7.19644812001055   -1.63836880058153
C          -6.81004011539664    5.53233245165449   -1.33089586940054
C          -7.93761003842292    5.24229105526373   -0.61551325358948
C          -8.71923124706867    6.37996738494484   -0.31689158784172
C          -9.96121366969324    6.29359592999860    0.49481599471533
C         -10.30322388277099    4.89559790626282    1.03246005359932
C          -9.84522776268668    3.82910647402813    0.02698744818397
C          -8.33606386151467    3.87601925943089   -0.16906535365080
C          -9.76620904938032    4.61368649282431    2.42104939457416
C          -8.61851851749054    5.13893375118107    2.85424217649937
C         -10.57648988516227    3.73300971530024    3.25665043878544
C         -11.53854709783348    2.89775345452051    2.76936139203793
C         -12.36115861659944    2.05934996916805    3.53259234195661
C         -12.30403892507285    2.06240351266053    4.99671986776310
C         -11.41968438705839    2.79796942617051    5.70314006347277
S         -10.25365602161349    3.83666388561207    4.98820654983658
C         -13.33304795426218    1.17174343673350    5.40608197084716
C         -13.98353455858907    0.64776643864486    4.28555199008264
C         -14.99292328245442   -0.27189462602920    4.65090892422656
C         -15.08808616558794   -0.40667562043175    5.99941104560773
S         -13.96019177960965    0.56165437306004    6.88574087790803
C         -13.37257608893114    1.19493941626399    3.09932926269704
C         -13.67644566010019    0.91147973262811    1.73564304988232
C         -14.84399708032253    0.39425674399026    1.29385409682440
C         -15.20094979412119    0.05434665871172   -0.04598624460770
S         -16.90207732177696   -0.23688095156129   -0.33581473225119
C         -16.60035821318160   -0.64573132697842   -1.97082030003175
C         -15.27824685411180   -0.56892158502861   -2.28809972486725
C         -14.46878194860993   -0.15422388467947   -1.20077088172363
C         -12.97537799021273   -0.06571053756871   -1.30938002587671
C         -12.42261460271534   -0.41524126348311   -2.70210129698509
C         -13.28283776847264   -1.48371842983964   -3.38516554634599
C         -14.69575475487228   -0.95432031114304   -3.60989231180930
C         -12.26190519530775    0.79707721773128   -3.59653881958830
C         -11.59074452628534    0.72009259399524   -4.74703865143672
C         -12.91957908583144    2.03360904704206   -3.22114256327738
C         -12.43342092539622    3.29274342297883   -3.27801609139500
C         -11.09738387962697    3.82325770741277   -3.50732784870259
C          -9.90901086694777    3.15262800702956   -3.36997451062078
C          -8.64509839409876    3.71473535011462   -3.63724524482792
N          -7.58535168601492    4.09741131416744   -3.86028083849877
C          -9.76452503684787    1.85295792204385   -2.84200350302861
N          -9.52306024206812    0.85866498545382   -2.31998002404180
C         -11.23131316805685    5.25562275559874   -3.73266356984352
C         -12.59073277662296    5.62866020338296   -3.57401223556857
C         -13.38162603311361    4.44255743456452   -3.20354663110778
O         -14.55681777548747    4.38633913376339   -2.92436372492215
C         -13.02306305102063    6.92532661193276   -3.70835137425340
C         -12.06474625951043    7.90981774023363   -3.96242882784083
C         -10.70245285807337    7.53624875356935   -4.05981102314312
C         -10.26929623876091    6.22206812976982   -3.97065813837608
S          -9.67175092099826    8.92193752334557   -4.24450423252919
C         -11.06437973398129    9.96905593102058   -4.18620823766862
C         -12.24349950736403    9.31595616136918   -4.05962890705739
Br        -10.83324608099507   11.82978121127755   -4.25439464575579
H         -13.83265839562299    9.29321603963005   -1.28849312419074
H         -11.28885988863945   13.54591671413155   -0.55409163945152
H         -16.07146536134567   10.97136750226225   -1.50811358139265
H          -7.60781283452202    9.55344116557395   -0.88715019791737
H          -6.07885318422562    4.83984007738930   -1.69884742919961
H         -10.78627587845453    6.60181411713841   -0.15972831136578
H          -9.93399513554665    7.02295810529738    1.30913828865698
H         -11.39600065191168    4.85784439956581    1.09644773183730
H         -10.34680227699248    4.03078432603503   -0.92186676295240
H         -10.12692701781067    2.82841075571573    0.35517726157118
H          -8.01591651367408    3.13052977512587   -0.89947549207019
H          -7.84150124365140    3.64064157181916    0.77816614672270
H          -8.22781206170864    4.92153544256750    3.83355137480614
H          -8.02727946521428    5.79819539400167    2.24431635427290
H         -11.69881112238522    2.87107369970163    1.70304798534753
H         -11.37787565371296    2.78754069339839    6.78088977439995
H         -15.61415604479965   -0.81999050340526    3.96651519963898
H         -15.76472938114592   -1.03051833983190    6.55021179082481
H         -12.90451463452522    1.16858948287462    1.02633136153692
H         -15.63855448049352    0.24351874288718    2.01178983403617
H         -17.41424122900781   -0.93007547758781   -2.60784234027546
H         -12.54234023891400   -0.74827503521045   -0.57108597802633
H         -12.63583659315027    0.94089538240649   -1.04713083294734
H         -11.41379524840679   -0.81962831719173   -2.56502663056604
H         -13.32444581862420   -2.36773963438935   -2.74554624677588
H         -12.83459297611485   -1.77190476371416   -4.33649139401601
H         -15.32151858825192   -1.71446541673105   -4.08149728974437
H         -14.66407578205215   -0.09167084666401   -4.28267016972293
H         -11.50033037998730    1.56282461929818   -5.41228374634885
H         -11.13680733587289   -0.19889845134279   -5.07432693638719
H         -13.96072963340556    1.95447391239723   -2.91977565781182
H         -14.06498985266905    7.17595461846487   -3.58491685685269
H          -9.22173415448389    5.98949643973008   -4.06592817115739
H         -13.19743757979727    9.80874424037397   -4.01127955592340
