92
 SCF done       -182.221696800749          0.000737591871
C          -4.77888505866162    2.51045265019088    5.50755934720918
C          -6.11162616053258    2.43772658238296    5.80773347525480
C          -6.62583883159442    1.89489152172065    7.00760419205290
N          -7.12131659701100    1.44502426728154    7.93925486562838
C          -7.19021564096244    2.82773801077969    4.98465336343621
N          -8.13890140796766    3.12168377391655    4.40673723735301
C          -3.69880152939356    2.08297964982131    6.38227143841099
C          -2.48142769916737    2.09885553872939    5.65659144914617
C          -1.28201270570659    1.73498075547547    6.22169153351489
C          -1.28761414132409    1.31463099297196    7.55594924289491
C          -2.50539377646454    1.32708324436323    8.27773843433469
C          -3.71465960272745    1.71077249938417    7.71473727473741
S          -2.29039250858787    0.77838355085872    9.91104720012410
C          -0.60212022883055    0.48762865042359    9.59055086313218
C          -0.20660734117250    0.82265562204130    8.33917803496395
Br          0.46080090136006   -0.26621710768065   10.93909342995017
C          -2.73415413200119    2.56343282618177    4.27704811665661
O          -1.91637656345195    2.67777111730961    3.39132995007928
C          -4.18515344013661    2.87369945808764    4.22226722914170
C          -4.90231396112415    3.26677916125569    3.14574921120363
C          -4.56243192981149    3.33466634027258    1.74350456440901
C          -3.58278836929880    4.02475673098777    1.06360905662442
C          -2.59454229829491    5.03350248364089    1.46121036157542
O          -1.73837088763457    5.37416770030907    0.67610450021033
C          -2.73707902286280    5.65864411049505    2.82382056143886
S          -3.68615021626359    3.75614142080849   -0.64656065747149
C          -5.05451091632215    2.75181678965700   -0.45640862032532
C          -5.42207744486882    2.60312466989157    0.84882650314432
C          -6.47557262644905    1.74762445894878    1.38786968169661
C          -6.16699030550562    0.92249254331174    2.42909678106747
C          -7.08875742014193    0.22207915662247    3.21377978620399
C          -8.52550092292172    0.39357938012586    2.97379617384322
C          -9.03766720115231    1.07467238060483    1.92206955331996
S          -8.09522134093600    1.92449853156411    0.76551846496537
C          -9.16747798809602   -0.25826287245483    4.06327420144988
C          -8.20676277270981   -0.77852022565005    4.93127424889081
C          -8.78351027474265   -1.39130715215157    6.06350194558182
C         -10.14061668492477   -1.32298146044543    6.02665553635874
S         -10.76842087536425   -0.52056686608219    4.62839187779172
C          -6.89481002563547   -0.52145209947198    4.39216112867341
C          -5.67495278241024   -0.88215346564374    5.02335437348010
C          -4.48563003507377   -0.90719746391039    4.36700945316952
C          -3.14757152969167   -1.03547696964468    4.83872185291122
C          -2.08006653888608   -0.80050550842976    3.96146370816047
C          -2.09619063191570   -0.24734434325784    2.61338611791580
O          -3.11792287178429    0.13396007185212    2.06685739482910
C          -0.75710545345267   -0.10665208867916    1.94126581528645
S          -0.55005889322498   -1.11538430109273    4.71748670242637
C          -1.30453211607958   -1.52798898811941    6.17507266454240
C          -2.67705777443693   -1.43378068348812    6.14069280497877
C          -3.46631036546609   -1.59656112914570    7.32366016732661
C          -3.15786956569501   -2.29415319635144    8.44339362047099
C          -2.12704043081765   -3.26878282718056    8.74693725460863
C          -1.61854627761889   -4.20613287085282    7.88888010632265
C          -0.69654366668210   -5.20005152834295    8.27482267159436
N           0.06529184305195   -6.01430870249719    8.54605488688751
C          -2.01556406742986   -4.31057496013870    6.53943856668855
N          -2.32995270188325   -4.44267686166476    5.44389272026992
C          -1.90059436869314   -3.21175507730178   10.18495058326610
C          -2.93195278051954   -2.43994861829626   10.77984942533162
C          -3.83260637113636   -1.93694618121078    9.72472851872587
O          -4.85680246648443   -1.30719851969420    9.84821768295623
C          -2.97979105268424   -2.19403559373069   12.13067735348874
C          -1.95671538264052   -2.72123161709427   12.92561226078770
C          -0.92893237590266   -3.48490001707653   12.31982226449467
C          -0.88677579097722   -3.74609279140509   10.95619750475801
S           0.24410000601628   -4.01571559494374   13.48264456653715
C          -0.64834064634933   -3.22080584332034   14.75149639370942
C          -1.76884591248864   -2.58866569250996   14.32793972023559
Br         -0.01698094293183   -3.29913504980502   16.51407616283527
H          -0.36744353764655    1.76348444113099    5.65005202857902
H          -4.61368237584836    1.70429974711096    8.30879114650201
H           0.79966243421613    0.71682142185441    7.97628419757874
H          -5.96467107719266    3.41584267261829    3.30929725283433
H          -3.77026378224511    5.67326566736628    3.15827634961718
H          -2.33411725086206    6.66797986629484    2.79124949600063
H          -2.14067569568442    5.08163100519561    3.52675470673722
H          -5.51693223813950    2.29813880140245   -1.31103796764665
H          -5.11765397842214    0.85458717294598    2.66285214132330
H         -10.09903250464941    1.15266648791609    1.74778995119502
H          -8.23386034870740   -1.84744437227276    6.86643977263831
H         -10.83565246138139   -1.70081090398663    6.75063164320947
H          -5.76032614269329   -1.13412517365637    6.07115118567752
H          -4.53212658618989   -0.80492119454718    3.29589003888820
H          -0.12220102214122   -0.97287591421378    2.10925676266813
H          -0.26756416915629    0.77909518955453    2.34670992578867
H          -0.90833236723596    0.04814629590754    0.87608577185765
H          -0.69741182821146   -1.76247093771151    7.02855459966277
H          -4.35685069303034   -0.98522336328023    7.40367586391864
H          -3.77456491260233   -1.60412042610137   12.55934666010936
H          -0.07930266191261   -4.32091901273126   10.53343265017077
H          -2.43483490726800   -2.04887984605738   14.97595096400321
