89
 SCF done       -194.321888281182          0.000972081352
C           3.34614970415055   -3.13233541152613    0.23045897870314
C           2.48275594914360   -3.24705659747873    1.29033165554997
C           2.87852665533409   -3.56673023215629    2.60034216534060
N           3.13949122450898   -3.88453260969157    3.67309463576368
C           1.09733278446786   -2.99909488275404    1.18591823318018
N          -0.02119209015332   -2.74489941908624    1.15604627419347
C           4.80132699569378   -3.07032313208963    0.32581976715154
C           5.30826238498873   -2.47485366403412   -0.84483463324056
C           6.65845128998552   -2.24561037413314   -1.01217254836805
C           7.52502599394266   -2.62669822717721    0.00609148944979
C           7.02812545803797   -3.22870449269486    1.16905897824423
C           5.66586908175592   -3.44984598165544    1.33874287637346
Cl          8.11090393612325   -3.70513775082676    2.41256261005681
Cl          9.21022657619007   -2.35696584327631   -0.16490447218596
C           4.19456049854830   -2.18153802410994   -1.77646678314636
O           4.24899824626883   -1.63358054325044   -2.84965224871541
C           2.99035351525088   -2.77036660312998   -1.12725262383466
C           1.83985527582678   -2.95223453050657   -1.83082376062712
C           0.77163525993585   -3.83548691894491   -1.49557135314950
C           0.97183646725662   -5.02502884512952   -0.86629299238228
C          -0.08544685599116   -5.86547231793478   -0.44684014051459
C          -1.38682484870235   -5.60725482303691   -0.76007339915544
C          -1.65775949916467   -4.58180666640552   -1.84381344909748
C          -0.64260911452237   -3.42115588257054   -1.86016777307612
N          -0.61036843421516   -2.71853898471364   -3.11930402052113
C          -0.96771179506379   -3.32008911041394   -4.16471671155603
C          -1.42153435504079   -4.72439387766400   -4.15206203086839
N          -1.70811102604196   -5.32706519572799   -3.08687374983909
F          -1.45704579077766   -5.37923486185012   -5.30602679323943
F          -0.91865959286631   -2.68836161884458   -5.32918683929113
C          -2.49130693866391   -6.35452410711836   -0.24626681826151
S          -3.92140693096996   -6.36879471239075   -1.31465633265574
C          -4.45453810451175   -8.03053572395059   -1.11879820930886
C          -4.99558303569505   -8.78299025643519   -2.11363649023118
S          -5.43543557126458  -10.34991488534288   -1.56022030848151
C          -4.86359534880434   -9.99733271654553    0.02203210938658
C          -4.37808706809059   -8.73030847525740    0.11115326659063
S          -3.76876492322962   -8.00282437174128    1.59098100873103
C          -2.47138399124137   -6.95835376009719    0.99052936412308
C          -1.46253900185587   -6.68072746662984    1.96370340723847
C          -1.21106807182207   -7.46283409164567    3.04590393897110
C          -0.23068204486814   -7.24545449556832    4.05162069562761
C           0.00252076807697   -8.21677234070235    4.98713054871260
C           1.00310687105818   -8.13249399600288    5.97866472433635
C           1.69368611802836   -6.97833375411283    6.21716510796276
C           1.27404064183398   -5.73489453390028    5.45336813930880
C           0.67129413749380   -6.02425982000391    4.06352370795654
N          -0.01306777932725   -4.86327167250060    3.53520019475448
C          -0.57879006655322   -4.08600542830463    4.34879757179453
C          -0.48562080703116   -4.26507246370254    5.81176723350943
N           0.37150948930897   -5.02183212264728    6.33156460292853
F          -1.34420204356083   -3.60668127746866    6.57854404865737
F          -1.24646711586028   -3.03847194773912    3.89088853483732
C           2.64005143926045   -6.74080544787375    7.24335533346990
C           3.38079671618611   -7.57952946583119    8.03426178199355
C           4.27696267895779   -7.10386766117356    9.08063682538507
C           4.41518130964559   -5.82139180463303    9.54169835275040
C           5.29928900923323   -5.44838158066436   10.57856486820208
N           5.99633692399693   -5.07078873292413   11.40820950147074
C           3.72456075118147   -4.67450647821990    9.08892448915090
N           3.23054381772953   -3.67727852748116    8.80521437417136
C           5.00698300557817   -8.25710499125629    9.60248489178442
C           4.56996599972731   -9.40922838902603    8.92957398743647
C           3.53303044458938   -9.05162398732505    7.94018752027029
O           2.96732368650789   -9.83314560782089    7.20508532619464
C           5.08373159825393  -10.65952112309173    9.20835853858857
C           6.06329698985464  -10.76542977396593   10.18687525397122
C           6.50867694465877   -9.62285914902605   10.86195138088402
C           5.98649752653804   -8.36596084634756   10.57702243539934
Cl          7.72431525096616   -9.76456040327289   12.06605811544822
Cl          6.72883328618496  -12.30157201978746   10.56650483618012
H           7.03008321876449   -1.77898050187635   -1.91068398581033
H           5.31575743668965   -3.91682357467596    2.24499720281624
H           1.74816318524982   -2.39188569200412   -2.75516879634059
H           1.98307419082378   -5.34533216391670   -0.65769066607363
H           0.17008384061590   -6.73888571377684    0.13302377987705
H          -2.66055697285794   -4.15795070530772   -1.69820314464588
H          -0.94017125369969   -2.68008826619592   -1.10345202514349
H          -5.17220421582509   -8.49472451718478   -3.12949384869612
H          -4.93213810131470  -10.72948941441233    0.80034786990246
H          -0.90183640575222   -5.76660872595368    1.82911125561638
H          -1.76519776637349   -8.38812069371941    3.15126250797407
H          -0.59198628318687   -9.11838091416840    4.95494723890687
H           1.20095397182750   -9.01182840525253    6.56864430399407
H           2.14471655536718   -5.07914460291363    5.31191226510068
H           1.49337198713472   -6.22873557843656    3.36201185927291
H           2.80864072781276   -5.68333630650166    7.40889856102502
H           4.73024384889813  -11.52934543823300    8.67754609080385
H           6.35844157927136   -7.51194095311386   11.11815033088157
