107
 SCF done       -177.601014541508          0.000311061512
C           2.12134906607071    0.92964264883173   -0.17077458723134
C           1.84745854513785    0.73243842469363    1.14365628364068
C           1.27291013392251   -0.53470402527903    1.40604801285135
C           1.00529878941677   -0.98956223293491    2.77364770720359
C           0.36128279497538   -0.15580762492323    3.67054670786280
C           0.13938293856042   -0.57358841494730    4.98443124198416
C           0.56789447346666   -1.82712330874218    5.38701892876031
C           1.22601439740314   -2.66533526215648    4.48309603262599
C           1.45294467161023   -2.24751367189014    3.18361733095593
O           1.60139131488287   -3.87539816091025    4.98694170238115
C           2.24412773787431   -4.78525406604980    4.12840363201723
O          -0.50521708426386    0.31864370863086    5.78506723546611
C          -0.74728572722982   -0.03552365453247    7.12487560954342
C           1.10880075757932   -1.28163705840201    0.25471106522222
S           1.71446716746458   -0.43085307142691   -1.13498173354153
C           0.45636945824935   -2.55387190801209    0.07590308599349
C          -0.51313943496176   -3.03702433297975    0.93990167222763
C          -1.14306100054416   -4.26057085587925    0.73996688675592
C          -0.86254622146432   -5.07955475593789   -0.34485443601647
C           0.13886602973472   -4.61335540826935   -1.24619598389545
C           0.77344703323387   -3.36167043354421   -1.05061783659540
N           1.69485902197692   -2.93512637006619   -1.93054877442965
C           2.00346885120752   -3.67611076362978   -2.96153409614704
C           1.37697073794655   -4.94089506558347   -3.15281451275787
N           0.47670765421382   -5.36464847286997   -2.30576487778010
C           1.70935772203047   -5.82323698005728   -4.30780024748600
C           3.02355458172090   -3.14835586341938   -3.91256766285290
C          -1.50782112400675   -6.34338486053491   -0.59887696799776
C          -2.73243229436653   -6.84257161923398   -0.16693484479692
C          -3.79057087307971   -6.11543043391904    0.61076746180995
C          -4.33006669361700   -4.90686491242152   -0.15445559722336
C          -2.96432460867110   -8.14306760578764   -0.62671166557838
C          -1.94526946909678   -8.67457981878408   -1.39036513490138
S          -0.68081790003724   -7.49772640233296   -1.60215963972575
C          -1.91318822357008   -9.96791141646223   -1.96843275524810
C          -0.86756145956597  -10.45653404348310   -2.67686610600686
C          -0.75602002053900  -11.75613540694007   -3.26169519874777
C           0.47683839460555  -12.14743000757943   -3.78693060865287
C           0.71219120951200  -13.39844834674284   -4.32584701715008
C          -0.29223943843480  -14.36237688092570   -4.39506845645775
C          -1.59087695149645  -13.98268887127703   -3.91374067575710
C          -1.82544788066958  -12.70344647077150   -3.35088671071335
N          -3.06340382873480  -12.38711755558863   -2.92446416061558
C          -4.03106790097060  -13.26193458293789   -3.03183730868697
C          -3.79258403616253  -14.54788336958001   -3.59055159200307
N          -2.59582446609834  -14.87052533956291   -4.00765953440007
C          -4.86600940046510  -15.56998736423473   -3.73724777251098
C          -5.38557330662866  -12.85533779907927   -2.55363262923539
C          -0.18532322490253  -15.68682896459948   -4.90389392323080
C           0.84346694917447  -16.45397875961703   -5.37754618187555
C           0.64086278957624  -17.82719998271872   -5.82606682760887
C          -0.54877464505234  -18.49896208012317   -5.95390035364977
C          -0.65600292324874  -19.83111185581641   -6.40784050862896
N          -0.82848656304795  -20.90888861014447   -6.76578879737027
C          -1.84923314035102  -18.02105297804899   -5.68474002341818
N          -2.96125379483241  -17.78023870475766   -5.51882598737848
C           1.94457681573177  -18.39489521248898   -6.14958976441446
C           2.92919269596465  -17.39885323893519   -5.95093015773864
C           2.28941994544687  -16.15304516283750   -5.48949209501291
O           2.88128584958146  -15.11591374146993   -5.26208415796408
C           4.26758793782834  -17.62074650913054   -6.16738155250678
C           4.65680486851726  -18.89179145240015   -6.59934897952923
C           3.66690494429353  -19.88335171025972   -6.79443191386410
C           2.31310569527798  -19.65717493925176   -6.57735075771202
S           4.37224295456098  -21.37873007204815   -7.32596958191378
C           5.95284836668314  -20.67657157342872   -7.28229313148979
C           5.96062879898912  -19.38418795286295   -6.89007209639529
H           2.56664931535348    1.79043146238494   -0.62927120011141
H           2.05997842735483    1.44692436094584    1.91867948606558
H           0.00648590424060    0.81676741146951    3.37030019358518
H           0.41849989505138   -2.19726099662359    6.38731544090767
H           1.97054282882859   -2.86995701611924    2.47228070031137
H           2.42539327625802   -5.67714539548756    4.72625854854499
H           3.19995334479584   -4.39167995004871    3.76788129095470
H           1.61312589627186   -5.04458828866261    3.27157237536374
H          -1.25643452977114    0.81883885216908    7.56822674843767
H           0.18592675654755   -0.22195569468643    7.66576237961754
H          -1.39085177950786   -0.91811783683835    7.19721194641414
H          -0.80134858934888   -2.44369315775262    1.79355372038727
H          -1.86226413979676   -4.57413159882787    1.47670232261706
H           1.49030571752963   -5.31680054468431   -5.24670532628100
H           1.12031076780936   -6.73340519555173   -4.24292529820946
H           2.76886377182161   -6.07461143815882   -4.30107368120472
H           3.88267968151920   -3.81617852502419   -3.95751553188771
H           3.34569652506271   -2.16577983767763   -3.58034833534466
H           2.60389935054337   -3.07237302380269   -4.91444669363402
H          -3.41573263853151   -5.80406248252040    1.58768738263637
H          -4.61140556961611   -6.81243941527612    0.79326395947727
H          -3.54181669920035   -4.18360130653823   -0.34764039484160
H          -5.11525718016482   -4.41915751064951    0.41861322400516
H          -4.74442342461318   -5.22490209176393   -1.10851611933631
H          -3.86306863944637   -8.69153991316516   -0.40185216359701
H          -2.78150250523794  -10.59125077872678   -1.81240407448733
H           0.00338767118856   -9.82091062584162   -2.79629025103801
H           1.29362106857553  -11.44018750893082   -3.75134525320081
H           1.69709373582556  -13.63544196758958   -4.69264802956994
H          -5.69690530499987  -15.16773829073608   -4.31456755249577
H          -5.24657283691089  -15.86240525877766   -2.75931605514242
H          -4.45833461738787  -16.44038937110564   -4.24416647926102
H          -6.10358780415186  -12.90239244995974   -3.37109014696259
H          -5.34848995905254  -11.84004381408959   -2.16900489428022
H          -5.72720154787229  -13.52813866347948   -1.76832103888334
H          -1.15223126115015  -16.17839635982604   -4.87662415739875
H           4.99041981471211  -16.83609659748245   -6.00537679386089
H           1.60265537194762  -20.44977013114111   -6.73977032501258
H           6.79141624945832  -21.28623580424278   -7.55774912705821
H           6.85003519767784  -18.78644965572460   -6.80368547670274
