105
 SCF done       -179.609272569325          0.000487241022
C           1.36292962069189    0.72355553160683    1.33411649917352
C           0.13104782967926    0.92450395688959    1.86620552367126
C          -0.65572360687449   -0.25138498657349    1.89956730094063
C          -1.98743529076315   -0.25532124237533    2.51602507465391
C          -2.92044215979189    0.69537235229781    2.14318872775663
C          -4.18324380638959    0.71349078675258    2.73925370296239
C          -4.49487371382383   -0.22171103689770    3.71143292609416
C          -3.54639704906611   -1.17226564904853    4.09844740941104
C          -2.29360087124541   -1.18704595822959    3.51046154410588
O          -3.96408958220876   -2.04177537674206    5.06266185962896
C          -3.07255583031086   -3.04101948912138    5.49166857451137
O          -5.03091940961149    1.68018920031067    2.29336421658464
C          -6.31964745495318    1.75305711332112    2.85266724791922
C           0.00740173845261   -1.34218953805696    1.36772813467669
S           1.61879445190956   -0.91067692332729    0.87315985040265
C          -0.48018545920476   -2.67436627967519    1.12179860072717
C          -1.82861883118189   -2.99037518810017    1.05001736168045
C          -2.27627228964420   -4.28749401830637    0.82850907729215
C          -1.40981631952387   -5.35305939501776    0.63600504243899
C          -0.01970869695729   -5.04736765444993    0.61296213857831
C           0.43819132292503   -3.73012359778715    0.86385229795791
N           1.75452673685107   -3.46712972247618    0.82960623163733
C           2.60384650791259   -4.41831458791489    0.54462752775609
C           2.14286908358931   -5.74186697642915    0.28834521812597
N           0.86651315713888   -6.01812427034582    0.33825436241060
C           3.07946063824746   -6.85642199619806   -0.03400721201969
C           4.05197428448702   -4.06530629780592    0.50798650886015
C          -1.84418481591363   -6.70506961824627    0.38952736718965
C          -2.99972622432627   -7.36663023275753    0.77984007076752
C          -4.04615951946217   -6.86232318944225    1.73090902716006
C          -3.45682394057204   -6.50531897523250    3.09512108449845
C          -3.06911616472925   -8.66132626660788    0.25125288922972
C          -2.00016271215654   -9.01129466647410   -0.54717151229615
S          -0.82929290689699   -7.72567111217965   -0.58372740107469
C          -1.84116246272291  -10.22473293444038   -1.26393575476797
C          -0.78550386514279  -10.50943255799631   -2.06297330448936
C          -0.64943425328360  -11.67949565679474   -2.85448727901581
C          -1.51427618449324  -12.75063307591720   -2.99176594017549
C          -1.04527796332901  -13.67687276704474   -3.92101070915491
C           0.19317857106198  -13.32520335270879   -4.50524599821638
S           0.77508969845736  -11.82913929353364   -3.87785703028765
C           0.50797479371461  -14.32369481439567   -5.42482696963798
C          -0.55159051780521  -15.26702100908128   -5.38166080275116
N          -1.47909029172287  -14.86007685303707   -4.45676987351211
C          -0.40090323004509  -16.32131996437472   -6.26906932713223
C           0.77210312080675  -16.21198120657681   -7.00862359378600
S           1.70053150788163  -14.77269416448676   -6.57656213134706
C           1.27678052197982  -17.04832597577887   -8.02251130770517
C           0.63350975101993  -18.15837606110449   -8.49634268136351
C           1.02837670224867  -19.01687163573939   -9.53952736550627
C           2.18098488713128  -19.13320243252964  -10.28286272372175
C           2.31209681141180  -20.08382028445161  -11.37336098576120
C           1.29944935715608  -20.75397384152361  -12.01582039525708
C           1.50072261555520  -21.65387610292190  -13.08219725989213
N           1.58946204137182  -22.40438271956319  -13.94729395652610
C          -0.08151243570222  -20.62617723154090  -11.76065994313161
N          -1.22481196941000  -20.57510586391897  -11.65184137407574
C           3.71959927797976  -20.15345462170458  -11.74773418267574
C           4.43029356142429  -19.19727144721611  -10.98449579208679
C           3.49943274997363  -18.49610466540849  -10.07854572949556
O           3.81070861752103  -17.59513011138321   -9.32342767054182
C           5.78431827780544  -19.00506812755328  -11.11107251075789
C           6.47303336620428  -19.80134709169693  -12.03150069532313
C           5.75586479649943  -20.76031351555689  -12.78411236248897
C           4.38445136388154  -20.95053035456238  -12.65973675034578
S           6.80851030250099  -21.63668978166350  -13.85149363938754
C           8.17078102268666  -20.72797024402703  -13.29318012935807
C           7.86025587674093  -19.81037878562567  -12.35207233761470
H           2.15025994583225    1.44048687784167    1.20881538582537
H          -0.21947107195675    1.86794506388150    2.24535224619846
H          -2.69869316055356    1.42055925605639    1.37706918761771
H          -5.45489497016295   -0.25329685629543    4.19861704806289
H          -1.54250175813801   -1.90583671909384    3.79498356966269
H          -3.61605010120988   -3.62216412067767    6.23512522370022
H          -2.17784725083575   -2.61086041647013    5.95302424971734
H          -2.77515844211192   -3.69624209668579    4.66636246322406
H          -6.80954339843728    2.58914696206620    2.35599425772011
H          -6.28001207831774    1.94406404695436    3.92973820487169
H          -6.89009265454118    0.83722118430126    2.66740768465545
H          -2.56134834565299   -2.20604348467371    1.15153940573129
H          -3.33974725540140   -4.44852025735953    0.76735293230809
H           3.64690996975202   -6.62575431235941   -0.93426653915661
H           2.50959884300994   -7.76773154100544   -0.19047322118537
H           3.78699725005018   -7.00618864724066    0.78023414322357
H           4.60306911539917   -4.64380899795518    1.24813719334596
H           4.16548403265096   -3.00590629392952    0.71851093719003
H           4.47102451485275   -4.28730512033013   -0.47216263831688
H          -4.79127750263637   -7.64999536730002    1.86156386576039
H          -4.56539810051505   -5.99642305102086    1.31526647950566
H          -2.96987939308908   -7.37416348095987    3.53239379582057
H          -4.24292063217112   -6.17209951347262    3.76893030628559
H          -2.71959645490096   -5.71186447272226    3.00023677207507
H          -3.89327733768796   -9.32777722390662    0.44108919752366
H          -2.65330205867347  -10.93269491300735   -1.16612752110803
H           0.01564428295527   -9.78616492954963   -2.13922615153200
H          -2.43682373498354  -12.84090074660646   -2.44969217806463
H          -2.33708231422552  -15.33261880665032   -4.23254450242967
H          -1.09886474749247  -17.12953831848452   -6.38446407546487
H           2.23179337369011  -16.76952479754398   -8.44325355088431
H          -0.32785786444214  -18.40607433657554   -8.06425579152441
H           0.26274599186846  -19.74126540571320   -9.79339102513250
H           6.29545790961829  -18.26354693472180  -10.51670437855656
H           3.88614510564287  -21.69751095711819  -13.25438984204616
H           9.13491459221927  -20.94190146026629  -13.71199729826080
H           8.57676056617293  -19.15529596078285  -11.89019460178636
