134
 SCF done       -255.729563041994          0.000925519069
C           4.26335917010843   -2.10782540841750    1.82942845350571
C           4.91944182556261   -3.30712614518947    1.91418109442764
C           6.13072695914197   -3.58864314906202    1.25198782411107
N           7.09950905222902   -3.87434367509497    0.70700618409685
C           4.49827120573150   -4.35190716781772    2.76538511980088
N           4.22396789566310   -5.18710770184114    3.50352218898756
C           4.81425698653498   -0.87206188180197    1.28096025086659
C           4.11055806521685    0.21764626874528    1.82777319955757
C           4.45300464089063    1.52089527594890    1.53048727712681
C           5.51272873790675    1.74238362619340    0.65933011006942
C           6.20775169569473    0.66291816054642    0.10208142188626
C           5.86835037594877   -0.64952148594634    0.41190960914643
Cl          7.50598596930733    0.95424072393602   -0.98318961469235
Cl          5.96868821320105    3.35062907117053    0.26623556004857
C           3.02134704997260   -0.28016983443940    2.69868139800498
O           2.24908193019197    0.36568542418458    3.36648404381779
C           3.04308084076364   -1.75646169719467    2.52561363255481
C           1.97046224153379   -2.50552062334610    2.89609662974819
C           1.61857406561020   -3.81296283509139    2.47685100333522
C           0.75193716595832   -4.65424178740200    3.12718089114482
C           0.57028648947126   -5.89591257497879    2.48656287575435
C          -0.19624660432334   -6.99718653797422    2.92850427582342
C          -0.86367797821766   -6.98373538321634    4.21108162288385
C          -0.40657273000012   -6.49869146046061    5.40589009431676
C          -1.34446883968077   -6.61798176447286    6.44935216874832
C          -2.52029009408102   -7.18703586897079    6.06216616551423
S          -2.48108628255011   -7.61174274609862    4.38457357215947
C          -3.73043981652507   -7.47371071568551    6.87475252897567
C          -0.27738448372572   -8.07415763664340    2.05657082566588
C           0.38355908406037   -8.12490590488992    0.80421396065039
C           1.21512577917494   -7.05741279817042    0.39943216663654
C           1.26115785241796   -5.95924286280431    1.24917330042297
S           2.17946997137630   -4.50862587605454    0.96583346874708
C           2.00293160019297   -7.13613824804777   -0.81144931817533
C           2.67908773780680   -8.21696419657601   -1.30674653967622
C           3.37850779059738   -7.94040444419727   -2.49738224751066
C           3.24016511609275   -6.65497312963674   -2.92201860468492
S           2.23694573772462   -5.74692436858365   -1.83801593350376
C           3.82851035230766   -6.00649869275457   -4.12196665245757
C           0.08484429346299   -9.31448832666429    0.10052804050165
C          -0.71550006232647  -10.17951487683797    0.79440777920803
S          -1.16218401425630   -9.54096911127226    2.36427492815876
C          -1.19784683749778  -11.46465336646106    0.39722909436065
C          -1.80016978573224  -12.31832059626651    1.28373604227048
C          -2.29156373548111  -13.58388140434719    0.96814831625152
C          -2.23537259929007  -14.09675051875300   -0.40406361766052
C          -1.67633608106462  -13.42937904007528   -1.43683852753977
S          -0.95762517217836  -11.87602193540649   -1.29682194995299
C          -2.84193643563765  -15.38105934452722   -0.34302947724566
C          -3.22630316138722  -15.66896683040072    0.96972392244785
C          -3.83941164132208  -16.93875229877798    1.06410660630766
C          -3.89635514349907  -17.56321983965070   -0.14139912707143
S          -3.21516626570287  -16.64805838946873   -1.44129853402695
C          -2.87321514183028  -14.55017454744593    1.80869499315115
C          -2.98553371494285  -14.40811287465530    3.21074091212492
C          -3.36996321666471  -15.34889785471365    4.10850971858127
C          -3.33206374471008  -15.13894838662981    5.51110370538580
C          -3.58147152059523  -16.06333846595277    6.49210907900262
C          -3.36951959794134  -15.58797827874362    7.80400552644890
C          -3.53650470612365  -16.29086689184844    9.01440577231402
C          -3.90071651199318  -17.69365889443752    9.02773106607414
C          -3.40018611742525  -18.70503374246696    8.25669353266012
C          -3.97115012220820  -19.96002339832570    8.54638173001063
C          -4.91148954497655  -19.91201046945562    9.52919775265267
S          -5.10281261910201  -18.29913545554185   10.13208414314907
C          -5.72217691043066  -21.02461074970748   10.08910147256576
C          -3.30752899455901  -15.58129804257341   10.18724990757826
C          -2.91135420412740  -14.21559499675820   10.19614052294861
C          -2.75896457075002  -13.49735533252892    8.97948893226483
C          -2.97403652381097  -14.22236945913768    7.81725012168966
S          -2.84823539227270  -13.59543340136732    6.19406297042130
C          -2.40626193174758  -12.09537522203366    8.95448988744214
C          -1.62794536520757  -11.42421673779036    8.04974017423013
C          -1.50140641731077  -10.04954020826622    8.32676882951042
C          -2.19135667030049   -9.65284430274761    9.43217736014208
S          -3.02291332154199  -10.98755198933378   10.15507387182061
C          -2.26740162301920   -8.30558390862657   10.05332365916988
C          -2.65112640081337  -13.77768251497567   11.49846720978054
C          -2.85190464694436  -14.73822329122646   12.47789862318509
S          -3.38029969732088  -16.25768670077843   11.79018107915155
C          -2.62868458744124  -14.44456356777951   13.83408561430837
C          -2.74261929342262  -15.22737243353478   14.95274182628363
C          -2.47175614393227  -14.79381810813648   16.30973985572146
C          -2.09820275325641  -13.54241542094348   16.72967766114749
C          -1.85627652622164  -13.20006321977287   18.07706651107115
N          -1.63691207229702  -12.85204890454137   19.14887067701055
C          -1.90262429661532  -12.41229586113304   15.90830008503248
N          -1.72393454391957  -11.43889327366498   15.32438963504783
C          -2.67644724815471  -15.94649495533312   17.18558881655200
C          -3.07193168537637  -17.04633039904154   16.40518546742775
C          -3.13561008207198  -16.64472127252658   14.98349292777464
O          -3.44849301611246  -17.35653428647936   14.05080536811411
C          -3.33684340650564  -18.27972265185245   16.96279638391730
C          -3.20273546161752  -18.42265544011932   18.33830723252953
C          -2.80893284160386  -17.33461254184968   19.12400226135648
C          -2.54409801372709  -16.09274291480718   18.55684443045162
Cl         -2.64500221922733  -17.52416241287905   20.82347466557964
Cl         -3.52107882827270  -19.94199178776987   19.07281534407451
H           3.91170668043500    2.34564929068373    1.96636261588577
H           6.42146655876727   -1.46033740753489   -0.03399455601992
H           1.25302123337464   -2.00934736923040    3.54254487999258
H           0.27440004733883   -4.38491789050190    4.05158661019827
H           0.58739238173821   -6.11106892285201    5.54141705700919
H          -1.15346914273077   -6.27868041644499    7.45228365286439
H          -3.76132381008034   -6.82370725618843    7.74572252365215
H          -3.72148127395600   -8.50997030722921    7.21577402484047
H          -4.63185220468165   -7.32228192645146    6.28469799542873
H           2.71626967909600   -9.16803530940431   -0.80655461572750
H           3.96943829378530   -8.67237316657477   -3.01882240985019
H           4.36225836937182   -6.74247718972303   -4.71822443554697
H           4.52538328938556   -5.22124461933276   -3.82891236209572
H           3.05165226256262   -5.55016569638980   -4.73434337658705
H           0.43646216996067   -9.51942688689638   -0.89427571522145
H          -1.88736506658580  -11.96801188185081    2.30379263259489
H          -1.63096640006939  -13.83388995452106   -2.43563620669988
H          -4.23154552353573  -17.37892606647288    1.96220044523063
H          -4.30701751542382  -18.52967185618574   -0.35979993225658
H          -2.67915630029120  -13.44887191015455    3.61029377534293
H          -3.67430799697684  -16.33386658449522    3.78877736224571
H          -3.91827782021600  -17.06025253473056    6.27403878467895
H          -2.61353990673582  -18.56235916037348    7.53696631387138
H          -3.68909652846964  -20.86857455736389    8.04390038880405
H          -6.78487047616920  -20.84789379451817    9.92433891975126
H          -5.56250658844164  -21.11044920961342   11.16324693348013
H          -5.44500905004289  -21.96319729173958    9.61526133141819
H          -1.12014139875928  -11.90594355421143    7.23430864167748
H          -0.91377113788775   -9.37745025132769    7.72645647582899
H          -1.72275620937596   -7.58705319516773    9.44705518332005
H          -1.83126901036867   -8.32382265740830   11.05216305918135
H          -3.30264081023989   -7.98068488588014   10.15216686656358
H          -2.29885707043417  -12.79388902991592   11.74978905360489
H          -2.30862229336977  -13.42146509584237   13.99047523577024
H          -3.63881088661544  -19.10982077732015   16.34401993031153
H          -2.24252242389812  -15.27919917869799   19.19566809805089
