108
 SCF done       -277.463172314092          0.000622193117
C           4.78842251064039   -3.67770365226172    3.24110077268237
C           5.25061762249593   -4.64723053983106    4.09122898925173
C           6.35152280878747   -4.47653726267327    4.96143444952510
N           7.23597849773251   -4.40786176330010    5.68823939186907
C           4.68832034052100   -5.92767287710645    4.26896551952836
N           4.26599226258733   -6.97448607997466    4.48542154460482
C           5.32877507240077   -2.32704054466487    3.13508437726927
C           4.51137731121374   -1.57557792381583    2.27243904114632
C           4.76801283945774   -0.24831066198022    1.99342325932987
C           5.87632417318911    0.34641685857518    2.58295328234774
C           6.70251687637447   -0.39630924090373    3.43797055762510
C           6.43508407572105   -1.73133824724260    3.72051956618866
Cl          8.07053479215738    0.34740188692229    4.15504304002707
Cl          6.23423954105455    1.99121073988718    2.26145194385793
C           3.41421728322999   -2.41606505990559    1.76098296233084
O           2.50407904675537   -2.05269890894049    1.04785979538068
C           3.65665634785967   -3.77156507952054    2.32480235498783
C           2.97368629935110   -4.92303217315195    2.07832455306383
C           1.89215580319284   -5.18821220272073    1.17706090020484
C           1.77051305009069   -4.34980657555971   -0.02821763252803
C           0.57788762592517   -3.74831874286020   -0.42821140604833
C           0.51351024206706   -2.92159243482550   -1.54361615699481
C           1.65802429347784   -2.67538609845929   -2.29466342413616
C           2.86030167292230   -3.26760351696353   -1.92032543725075
C           2.90448553197053   -4.09083405964447   -0.80353407443674
F           4.07474330244327   -4.64777302419262   -0.47376539006494
F           3.96575032172521   -3.04355137452120   -2.63089790428665
F           1.60293962139466   -1.88681095833232   -3.36525400531577
F          -0.64726265742661   -2.37310538253965   -1.90114863856100
F          -0.53324817582956   -3.95392747919378    0.27318022998215
C           1.06468675570200   -6.26352921169951    1.43143999877297
C           1.26827032178131   -7.03880544038299    2.68076601645250
C           1.19006239328559   -6.47160896136328    3.95205130839959
C           1.39780365306254   -7.21895012656080    5.10431512344183
C           1.72827916255593   -8.56868251036941    5.00524000278273
C           1.83001009032656   -9.15664518756968    3.74671983987129
C           1.59009553778182   -8.39639194105044    2.60648405677524
F           1.66734641222790   -8.98853476189302    1.41487781751277
F           2.13827406967575  -10.44413065240697    3.63601738405988
F           1.92555619438348   -9.28937221114054    6.10008695675909
F           1.26950821618989   -6.64559789469738    6.29990386174060
F           0.85916486808253   -5.17991316440034    4.07389942985971
C           0.05576531446813   -6.79475231275688    0.54808769036154
C           0.25088991014289   -6.66593173232881   -0.90747307470684
C          -0.78672507747457   -6.27530390161287   -1.76163668300591
C          -0.60694521775694   -6.16508403568140   -3.13347571810164
C           0.64002025633263   -6.42286540228250   -3.69891444706684
C           1.69382492144975   -6.80069167845075   -2.87242451464602
C           1.48964947753614   -6.92407026401564   -1.50180567803109
F           2.51971275545209   -7.30331438718404   -0.74249600657733
F           2.89718676630307   -7.03246473092103   -3.38755485368507
F           0.81981844855424   -6.29541028000544   -5.00778176001516
F          -1.63097401526167   -5.80973483332285   -3.91067238392633
F          -1.99545838283808   -6.00474866014835   -1.26088502348225
C          -1.04403435528980   -7.46820930638791    1.05432541205446
C          -1.45924170432844   -7.31088789933260    2.47101270296213
C          -1.87502996674489   -6.08133801849327    2.98283449030430
C          -2.33465513736146   -5.95690845379156    4.29259846663254
C          -2.38485203216302   -7.07387144226098    5.12173684373286
C          -1.98322991634309   -8.31337987441643    4.62798414597272
C          -1.54407779689550   -8.41893328076058    3.31492454685296
F          -1.15174108441677   -9.61545110523955    2.86111630175949
F          -2.01947692606534   -9.39087704380957    5.41076199608652
F          -2.81898348347632   -6.96327382244640    6.37227189585669
F          -2.73532330882268   -4.77467022352524    4.74874484791942
F          -1.86133765387142   -5.00440972993977    2.21071362889793
C          -1.88370437305467   -8.31253729773866    0.28180239606242
C          -1.59462316687176   -8.96290040728720   -0.91124194396024
C          -2.69136752895405   -9.63560737882834   -1.42283025753866
C          -3.83643229086857   -9.54539628823384   -0.59489332976398
S          -3.54945412742322   -8.60573184987397    0.79586881695888
C          -4.87909332824977  -10.27329363938096   -1.19902603946763
C          -4.41146242479445  -10.81583785657933   -2.41445888344077
C          -3.02952793495802  -10.40395352294456   -2.60579848845248
C          -2.24363792043587  -10.58938086997240   -3.70689761446577
C          -2.67060831396206  -11.34082061855800   -4.82097348013598
N          -3.02129099638256  -11.95969148325237   -5.71979498417074
C          -0.98114466843896   -9.96768040160639   -3.79059731868317
N           0.01443654187171   -9.39916846647558   -3.82881511744609
C          -5.38435928988477  -11.52653893556116   -3.10512491427152
C          -6.60061220750608  -11.53886106919762   -2.43441131907263
S          -6.52390684243936  -10.65317599063719   -0.91560862229235
C          -7.81095700308743  -12.15326112287424   -2.85372697934207
C          -8.97597968850863  -12.07040192967087   -2.12526339746398
C         -10.19371149193133  -12.62837178238340   -2.50190701617522
C         -10.34436383679219  -13.29712873346819   -3.80650524049585
C          -9.32747181726403  -13.51294874708295   -4.66780912646204
S          -7.71012733644200  -13.02283632257873   -4.38457170730792
C         -11.72361074692444  -13.61943727821154   -3.90635432355893
C         -12.38694200422517  -13.19189115503930   -2.74881031671199
C         -13.76932125135949  -13.48861859478967   -2.78953129652910
C         -14.11030634948913  -14.11155532763305   -3.94585089441599
S         -12.78004660915142  -14.37079978767715   -5.02922199771569
C         -11.44153642730956  -12.59619451082373   -1.85639757116214
C         -11.78927466471951  -12.09093077873776   -0.55612499679799
C         -10.98279607140674  -11.99622028695613    0.50096890514256
H           4.12251211234912    0.30874541031547    1.33281227504513
H           7.09475095375418   -2.26789314398683    4.38222107197018
H           3.28809567306669   -5.78749708862766    2.64530482085628
H          -0.61362630403432   -8.97687793417046   -1.34665451421568
H          -5.23467386566640  -12.01447526351155   -4.05136460261225
H          -8.93606293360927  -11.49754280015402   -1.20858123355681
H          -9.46223181845374  -14.02226041758632   -5.60916577533053
H         -14.47233852988709  -13.25529980540113   -2.01085964000245
H         -15.08223071242968  -14.44967355480494   -4.24794998138826
H         -12.83012199065691  -11.81010670427919   -0.44888595591799
H          -9.96083027542667  -12.33256820511943    0.48328665036131
H         -11.34069593597329  -11.61029119438397    1.43958685986998
