114
 SCF done       -244.568033081623          0.000736681346
C           0.19577375697311   -0.82588579687322    0.81291310273635
C           1.03073574929378   -1.82746365474110    1.23351073244271
C           2.10023474501337   -1.63479788493925    2.13458862425386
N           2.98389258385905   -1.53559251977494    2.85918487110325
C           0.98650425520981   -3.14811885767714    0.74499598431984
N           1.00537529621592   -4.22842781164354    0.35678726122219
C           0.38017715895956    0.59272976163905    1.11541457364887
C          -0.30868016377884    1.35702477955463    0.15572988884713
C          -0.27767655443919    2.73671396654634    0.17208819647980
C           0.44613248762517    3.36790630478238    1.17648233897239
C           1.11858727475174    2.61331393461340    2.14570942098922
C           1.09382764680787    1.22278036638366    2.12017634196241
Cl          1.98997062596731    3.40825988932506    3.39147038030442
Cl          0.50962477816934    5.08219675961884    1.22994359613264
C          -1.02564591084003    0.45500933766598   -0.76991788950414
O          -1.67598461732192    0.74804852101818   -1.74492008932047
C          -0.82544759160554   -0.91132990183238   -0.21028071808511
C          -1.62276591449957   -1.92347563947853   -0.65642571354184
C          -1.89446277265664   -3.16600178139687   -0.04764400284475
C          -1.72012348229664   -3.54320157579840    1.27713580214944
C          -2.12831566905940   -4.84811673436633    1.51063361470216
C          -2.62736352539144   -5.48453732713023    0.35482262091151
S          -2.61293100465494   -4.46054325341431   -1.00262243159472
C          -2.98354210253534   -6.81274320972800    0.69745788424028
C          -2.71007074518944   -7.01523813615764    2.06181269646234
C          -2.15312875192236   -5.79138417699047    2.61494508860116
C          -1.70609022327561   -5.57451427714982    3.88486603694931
C          -1.76329929816172   -6.56738389839869    4.88563899583405
N          -1.81733968166389   -7.37697432791873    5.69534126113590
C          -1.15509626736948   -4.33192144079910    4.26431084382528
N          -0.71258425544416   -3.31475440453254    4.55447710512551
C          -3.02351126718372   -8.30320850650816    2.49322121824738
C          -3.52903199952226   -9.08183669108246    1.46922401324912
S          -3.62197134428800   -8.21074003462025   -0.05053257618362
C          -3.94323526263249  -10.43848468663793    1.55336397241387
C          -4.37975747385515  -11.25000893542431    0.54323216146362
C          -4.69938747477738  -12.56030846569095    0.96734521596189
C          -5.17189095642519  -13.63852042709541    0.18776935335444
C          -5.49662032543103  -13.50119920733447   -1.21663909693869
C          -5.31380664481213  -14.41275581283340   -2.21756412252622
C          -5.81484372149511  -13.96974134038491   -3.46057170592481
C          -6.39359977020395  -12.73406514047510   -3.42967078508406
S          -6.31260652225424  -12.08472810523033   -1.82786122941200
C          -7.02377557905461  -11.97119925571146   -4.53578110324950
Cl         -5.69854885586814  -14.92473724759549   -4.88824448089625
C          -5.33352007189065  -14.85224271509941    0.84863924638906
C          -5.10643609362173  -15.01941548152562    2.23768384945639
C          -4.69298485760283  -13.92666786765729    3.02764401877600
C          -4.46563050575284  -12.73246527943393    2.35566652138742
S          -3.90543223860147  -11.26146132213987    3.09745483755873
C          -4.53758618968382  -14.05693282327108    4.46104222159195
C          -5.35648419394037  -14.71459085846474    5.33525150279918
C          -4.90514583922119  -14.63475842193973    6.66996791088009
C          -3.74631695415546  -13.93001405443948    6.83074711359274
S          -3.19419441988928  -13.33380637215170    5.30305147713498
C          -2.98792492197908  -13.65984199025258    8.07698135156265
Cl         -5.75799634605661  -15.37045067143814    7.97226426744587
C          -5.31898592867345  -16.35210817029542    2.65636001254936
C          -5.72447037836415  -17.18534775492467    1.64966413380433
S          -5.86053817663432  -16.34474985786433    0.11953612974967
C          -5.98993555362721  -18.57956716788100    1.74902857413424
C          -5.98473588248714  -19.34093615636943    2.90548960378227
C          -6.25379476160573  -20.68258328266050    2.64600671672077
C          -6.46728905199438  -20.94489289585004    1.28070930999784
S          -6.34322018449752  -19.53341683784823    0.32326785516831
C          -6.70485459410187  -22.33042724628454    1.11941938906865
C          -6.63982292162641  -22.94844842146552    2.39056876546110
C          -6.37794336327119  -21.92701126399442    3.39061373832172
C          -6.28719456750537  -22.08384284248749    4.74168030201614
C          -6.47888104169104  -23.32401601127129    5.38953184395068
N          -6.65119237419164  -24.31105061148262    5.94546273199960
C          -6.01528855597612  -20.99380850197808    5.59652889018440
N          -5.79159810095330  -20.10538003326103    6.28604891318554
C          -6.80880530788753  -24.32395387345153    2.34001416715953
C          -7.00849158970489  -24.78120561950125    1.04245879969642
S          -7.00754042599051  -23.44575078356120   -0.12421455141414
C          -7.23735824814600  -26.06382619516959    0.51055009385765
C          -7.10024614684249  -27.30292039224332    1.07797524067301
C          -7.44930084258337  -28.54441477435520    0.40643580938775
C          -8.19943722410031  -28.68535977718376   -0.73146548362417
C          -8.51145897894713  -29.92929557346245   -1.32196626043190
N          -8.79361879843289  -30.90375185257362   -1.85829065472631
C          -8.79807771896158  -27.63529694436636   -1.46061430721375
N          -9.33296737754228  -26.84353956038332   -2.09783116211767
C          -6.92277396205045  -29.64584150692417    1.20758702725499
C          -6.33797239924746  -29.11801782934083    2.37036065845441
C          -6.44005137892935  -27.64368834622016    2.36073726902833
O          -6.01586559295898  -26.89983196617815    3.21745338984218
C          -5.76166823719323  -29.92462402172018    3.33012548193554
C          -5.76490253236577  -31.29822414107636    3.12275457397976
C          -6.33878484787951  -31.83397888287929    1.96343488067120
C          -6.92136730134686  -31.01608510952532    1.00141046203124
Cl         -6.32637805853525  -33.53227710292241    1.71365117348298
Cl         -5.05996908634403  -32.33900648157928    4.29098081323199
H          -0.80254482449517    3.30866067290100   -0.57659601736770
H           1.61507209575320    0.67043535693791    2.88512029588867
H          -2.16874748189606   -1.70415617294668   -1.56896166221732
H          -1.35537217958111   -2.87184505552759    2.03278130721171
H          -2.89373015620889   -8.67433388907626    3.49399672979914
H          -4.44710203017365  -10.91311100865157   -0.47502466134126
H          -4.80674684345220  -15.35173714387344   -2.09719413237459
H          -6.92110296402642  -12.52429113045189   -5.46589767908451
H          -6.55226333295148  -10.99563069667757   -4.64787638126375
H          -8.08305685483965  -11.81008040426695   -4.33642938250677
H          -6.27428750882032  -15.19751460054363    5.05473963051114
H          -3.55556357758390  -14.01157469765561    8.93473957263099
H          -2.79764111871245  -12.59329998724328    8.18603498727961
H          -2.02565372888531  -14.17155427459184    8.05912583483839
H          -5.14085675302942  -16.68666896715506    3.66064737647568
H          -5.79323280970064  -18.93083242513723    3.87915116407129
H          -6.77955877113378  -24.98277921251497    3.18832118911492
H          -7.54680045798365  -26.04523611321750   -0.52814061257303
H          -5.32288665265329  -29.49503949946954    4.21686325115971
H          -7.34974055266480  -31.46608825579779    0.12108328641824
