104
 SCF done       -219.662415667456          0.000356060657
C          -0.33948883945319   -1.99987061235203   -4.25025065524350
C          -0.99471105815257   -1.92673071560130   -3.04901315712355
C          -2.28736017207069   -1.38676861632395   -2.89097070603357
N          -3.34362315448167   -0.97523366828496   -2.71343566806788
C          -0.40084519740531   -2.29525865182249   -1.82390764618601
N           0.06726149668144   -2.54546677107850   -0.80608175813261
C          -0.76718500930912   -1.34387704014717   -5.48379041092082
C           0.35638867205666   -1.16357051447155   -6.31177417013722
C           0.26037425449920   -0.52167892840819   -7.52949498990576
C          -0.98652877704626   -0.06172869460876   -7.93607207496385
C          -2.11085526607318   -0.25194533521152   -7.12373079661054
C          -2.00883234986252   -0.88829302818576   -5.89112478015854
Cl         -3.64654080852251    0.30591636317162   -7.64895508386748
Cl         -1.14603162210001    0.74139490278815   -9.44478949243279
C           1.54618342029117   -1.76720348285247   -5.67086075302098
O           2.68813512944401   -1.76066578575760   -6.06396728337735
C           1.02032675994245   -2.44908547318468   -4.45694137410186
C           1.78756587594700   -3.38609324750406   -3.83197863433839
C           1.40743796630560   -4.43859818070338   -2.97299154450288
C           2.27026349286783   -5.18558497362338   -2.18180133615142
C           1.61324720221654   -6.19050740241512   -1.48344095488570
C           0.23155511998820   -6.24055576764640   -1.77159466828909
S          -0.24743255977732   -5.04839684485405   -2.88490584811887
C          -0.34998832855224   -7.28595479298652   -1.02083359289915
C           0.65539370312935   -7.89923307152967   -0.25090259867112
C           1.92247934426930   -7.23327730944816   -0.52146136434777
C           3.13877892318009   -7.53279930573334    0.01748473971877
C           3.30641677005375   -8.58027153880413    0.94790963803068
N           3.44151042028033   -9.43408884782834    1.70111931576270
C           4.30973234050392   -6.82385544136123   -0.32619463012028
N           5.26568827991940   -6.25710442875388   -0.60708862220003
C           0.17378160754010   -8.93481977984665    0.54441733641146
C          -1.19200644519047   -9.11369045191154    0.38883175651147
S          -1.88827457898472   -7.98738791260023   -0.76395664621219
C          -2.01823553312581  -10.05221986761731    1.05231634877218
C          -3.38712984860115  -10.20892437693998    0.92279804103911
C          -3.87817816925195  -11.21560853046916    1.75039940888552
C          -2.87083334715012  -11.83605280445059    2.51611687399120
S          -1.32420506370528  -11.17797259205423    2.21356678694826
C          -3.46739628363415  -12.82580783476842    3.33109558389616
C          -4.85373966438748  -12.82975324265620    3.08611909191051
C          -5.15481120058205  -11.82935526757131    2.07375492462242
C          -6.37339504652258  -11.54799119491631    1.52974679537808
C          -7.54567923515969  -12.24775942272498    1.88952360674977
N          -8.50175905921582  -12.82253330630191    2.15428370811767
C          -6.53448376770533  -10.55238247138770    0.54258142410552
N          -6.65908318168890   -9.74524442251182   -0.26210713490863
C          -5.54707967739058  -13.74828585522292    3.86433917992676
C          -4.70067218886072  -14.46054238942979    4.70298173395975
S          -3.02155276059931  -13.97339589787378    4.51633556035135
C          -5.07559375757632  -15.45580140136041    5.65008623752561
C          -6.38336250863224  -15.86379458841755    5.78691732475734
C          -6.83776017707420  -16.75080684062578    6.75395176491837
C          -5.94819154423705  -17.27742176945862    7.79267561728979
C          -4.61211182414688  -17.06794761971921    7.80489819286279
S          -3.78669194367535  -16.11258685905510    6.64385897625093
C          -6.79824523877453  -17.96950657384070    8.70024199683091
C          -8.12479588246198  -17.86946669673719    8.27269096403111
C          -9.01639829796806  -18.53176956756604    9.14384805011432
C          -8.35995977450424  -19.10162343329790   10.18867577276571
S          -6.64575671410104  -18.86461262058915   10.15819105854715
C          -8.16469441185498  -17.14276819545386    7.03184746684956
C          -9.32411761287538  -16.87263395908475    6.27240861842775
C          -9.36611818878760  -16.71039337492115    4.91705370485376
C         -10.54590881537401  -16.45815760852468    4.18250641811081
C         -11.67531482155643  -15.80739976809416    4.59911236088186
C         -12.97425505966764  -16.05952063247513    3.92733195254047
O         -13.15693659182340  -16.65649019871858    2.89081207777413
C         -13.99545525324811  -15.48473766176436    4.83177642194510
C         -15.35532533141735  -15.54260547149790    4.73944601308015
C         -16.13907838657034  -14.93631112297422    5.74776852447093
C         -15.49386418275996  -14.28405611599185    6.83807504110759
C         -16.28134758768010  -13.68845813682577    7.84346735517928
C         -17.64512599071128  -13.73511379744057    7.76856413365121
C         -18.28216613017118  -14.37846050310343    6.68914639568133
C         -17.54613785813232  -14.96664537735889    5.69892129515621
F         -19.62150313657357  -14.41064895933175    6.64212180126569
F         -18.39183279645877  -13.16789750068661    8.72617154155370
C         -14.08213662627802  -14.23292270753355    6.90252095359041
C         -13.34475847402891  -14.81960538702975    5.90999933609097
C         -11.90180517956270  -14.89399059860239    5.69147380208322
C         -10.97664186428623  -14.03944961272298    6.24181672544078
C         -11.27282689409663  -13.10904527299705    7.25579688742967
N         -11.46007063942366  -12.35652804028524    8.10294725835315
C          -9.65097689561763  -13.93819784986040    5.78679220132327
N          -8.57434880669067  -13.77283591060792    5.42032371596081
H           1.13249318168604   -0.38038862245293   -8.14805935422909
H          -2.89316004252940   -1.02243640643574   -5.28936695255810
H           2.83966289795363   -3.37000794990761   -4.10195147482069
H           3.32078523237902   -4.96760962862404   -2.11212471495464
H           0.76623131311414   -9.53450763896204    1.21196422227334
H          -3.98108261126980   -9.60640140594115    0.25903276590551
H          -6.61434332588731  -13.86548142582931    3.85110296074600
H          -7.12013724084712  -15.40019070900203    5.15108481791218
H          -3.96228330257913  -17.48628860009304    8.55722778357171
H         -10.08168302262181  -18.58582694625405    9.01152318388051
H          -8.78046610108387  -19.66354069705386   10.99959796718475
H         -10.26264115462135  -16.88526601833191    6.81587222166263
H          -8.47840955777424  -16.92811477060255    4.33949310133921
H         -10.60511156001547  -16.88841999243674    3.18780620134673
H         -15.82881329155533  -16.04269501607855    3.90834893127301
H         -15.80937044030992  -13.18782087761987    8.67444214006372
H         -18.04911124093385  -15.45492797747375    4.87897015364760
H         -13.61838712059452  -13.73713875482571    7.74062460202258
