91
 SCF done       -195.348282908507          0.000532206651
C           1.33483994889508   -1.15411005982698    0.06158440696807
C          -0.02866826617225   -1.29126446114521    0.10195917068857
C          -0.92543029561178   -0.47034499424860   -0.61460653747842
N          -1.70009709348296    0.16563014459275   -1.17266888284277
C          -0.70209951882922   -2.20273273450896    0.93803509465074
N          -1.29137435342888   -2.91222991453077    1.62187406070183
C           2.04072063123369   -0.05201538321088   -0.59262197770706
C           3.33000876846474    0.05489396953460   -0.04019463378113
C           4.21079314841948    1.03847428132866   -0.44125231907158
C           3.80015780610082    1.92881205945543   -1.42601901130488
C           2.52487041578828    1.81783038003387   -1.99244133158325
C           1.63583602108064    0.83121226316795   -1.57832275360997
Cl          2.03991666149996    2.91324961141179   -3.22127211876526
Cl          4.86698231406920    3.16684589213040   -1.95163895671191
C           3.53133652440288   -1.02382016150196    0.95001505109410
O           4.49276223528381   -1.21818377389145    1.65615745853244
C           2.30861379586756   -1.86814427573232    0.85738637597900
C           2.33724036439427   -3.10857790975257    1.42734738044852
C           1.51830665320575   -4.22719749836225    1.18552750180463
C           0.66657097079184   -4.48760268813816    0.11906393457045
C           0.06027806098682   -5.73054212949645    0.22060007389659
C           0.45432260850068   -6.44475987956637    1.37389824911270
S           1.57895304883153   -5.58356129879280    2.31292865995425
C          -0.22561495580088   -7.68611514982334    1.38293778541325
C          -1.05689632396310   -7.75193011506825    0.25124158772628
C          -0.90361180644551   -6.52697241341998   -0.51632858778399
C          -1.52812366772996   -6.19273150255113   -1.68328421931337
C          -2.42500261411643   -7.07320734667744   -2.32138256283195
N          -3.13685405598698   -7.81236478898851   -2.83365976891428
C          -1.28714055222123   -4.95702966191180   -2.31912239669792
N          -1.07408119574955   -3.95109046045433   -2.82657954904541
C          -1.77827611649484   -8.94311652051002    0.17488674863147
C          -1.49522947529855   -9.79735207930720    1.22384084972231
S          -0.33527350766037   -9.09474565956219    2.34234163729764
C          -2.05040256414259  -11.09642348475354    1.49472144736580
C          -2.17760574435692  -11.52871631063468    2.80596409137963
C          -2.83038008880011  -12.71074222053092    3.13133578070644
C          -3.39403877556558  -13.53080650692019    2.16255797751580
C          -3.16015758986699  -13.21767682579209    0.79080816572176
C          -3.39333229826070  -14.06534221059415   -0.29834477492215
Si         -3.28050303436562  -12.96177033623640   -1.72858654498901
C          -2.10207697752067  -11.86654042444367   -0.90108639396458
C          -2.45314132792226  -11.98013383688099    0.44879343317170
C          -4.15554365516270  -14.67637217099510    2.59401476922344
C          -3.96735086157595  -15.38367970190577    3.76670215383332
C          -4.91411585343565  -16.39367582570799    3.93897382571069
C          -5.84711343383661  -16.45336789611621    2.88976821234936
S          -5.54389587919229  -15.27035251331953    1.69560550355909
C          -6.75825486456768  -17.50744668665207    3.13646778168852
C          -6.39349408019132  -18.11802812480322    4.36251344558225
C          -5.22562994382607  -17.43725255293859    4.90115806281354
C          -4.56099404578696  -17.71504808629300    6.05915807887570
C          -4.94795826718381  -18.76528965245064    6.91857048382209
N          -5.25402226550003  -19.61835181849130    7.62038109130498
C          -3.43926710162793  -16.96640039491800    6.47327424987629
N          -2.52902752548225  -16.35465300311706    6.80802155752880
C          -7.23022318608255  -19.16393791594083    4.69374708353809
C          -8.23392631120689  -19.37524372909942    3.73787794585166
S          -8.11292765077559  -18.22810047939794    2.40040243409176
C          -9.19128462542587  -20.38673247700969    3.88620994895620
C         -10.22797369818191  -20.76070374982936    3.06595240431728
C         -11.17382071752311  -21.83162584916786    3.32041879966033
C         -11.25141199298039  -22.63426763524692    4.42790989269738
C         -12.21322146717798  -23.65349828876649    4.59949085555690
N         -12.96541289169933  -24.49560517010793    4.80448191832680
C         -10.40696770833121  -22.56986684995315    5.55707007152128
N          -9.76885406978950  -22.58419288002733    6.51166129154811
C         -12.06933387096878  -21.90370163443498    2.16576471929243
C         -11.70239859906729  -20.90814536496778    1.24334608596114
C         -10.54958770245642  -20.15614813820305    1.77115462912185
O          -9.98580446050183  -19.22326153441954    1.22502862188708
C         -12.37244498324130  -20.73334684346620    0.05008449547972
C         -13.43969816962460  -21.57624938714849   -0.23408036398198
C         -13.81276795031804  -22.57135674385123    0.67632056164427
C         -13.13361718526345  -22.74199328676178    1.87860841894544
Cl        -15.13209784530740  -23.60786458508526    0.31293904625142
Cl        -14.30058562991413  -21.39391447562794   -1.70797463107881
H           5.19220020472754    1.11238523015185   -0.00019589791646
H           0.66363496828718    0.76878089163204   -2.03961448020615
H           3.16428391176359   -3.26538139363182    2.11387706226494
H           0.54407567389868   -3.81533828198927   -0.71024756191807
H          -2.51289223262629   -9.15935586324660   -0.57874803698086
H          -1.81193829758711  -10.90116457643723    3.60586244992792
H          -2.95458667281298  -12.95769829245834    4.17402842851181
H          -3.94179536633239  -14.98423365999549   -0.18093252087874
H          -1.58984295744671  -10.99402823403937   -1.26868402519153
H          -3.15438421935441  -15.19281846281137    4.44263635605996
H          -7.14810470172386  -19.76998788615725    5.57881305890349
H          -9.06668661020024  -20.95093587483580    4.80254646330080
H         -12.07337429509483  -19.96220584309874   -0.64203326462860
H         -13.45142869058015  -23.52018589135298    2.55260492232097
