89
 SCF done       -194.561561243249          0.000382468924
C           0.95745808772867   -0.74795799013369    0.97481117943196
C           1.87849111607629   -1.76177433536175    1.02546299506605
C           3.12176009366262   -1.73183721873179    0.35787431658495
N           4.14633553552088   -1.76374269499513   -0.15703131489853
C           1.74470009458880   -2.91208237334582    1.82716274247282
N           1.69505074499945   -3.85247923403342    2.48403839787949
C           1.19029962630324    0.55621724641364    0.35447482922648
C           0.28297255307030    1.48649787172430    0.89345296328465
C           0.29778202533841    2.81412040561429    0.51735533899999
C           1.23223203338204    3.22088643517886   -0.42730007248903
C           2.12773531684532    2.29730233133349   -0.97975410784188
C           2.11586408305857    0.96159484880879   -0.59144067831440
Cl          3.26378831638287    2.81184970553005   -2.15827841206981
Cl          1.28295352685791    4.86420792665233   -0.92050808508315
C          -0.61950014466144    0.80049987650448    1.84167434358032
O          -1.48732061767251    1.28440399987102    2.52936818756599
C          -0.26976164026558   -0.64304372342577    1.73382060106619
C          -1.12874059377954   -1.56015748721098    2.26585988388451
C          -1.24245222073692   -2.93743482281879    1.99427307512012
C          -0.77683928588992   -3.66116658039339    0.90344417932754
C          -1.11660702050511   -5.00367743816705    0.97893814546603
C          -1.85380471918570   -5.31985488631904    2.14189514682576
S          -2.14699603919754   -3.95642668712887    3.11329550098584
C          -2.11762975338087   -6.70843788653264    2.13905772523407
C          -1.55315541981772   -7.27428360563646    0.97973396533167
C          -0.89924305830104   -6.22078743430578    0.21779975147106
C          -0.20034168384750   -6.34627042169047   -0.94677637687251
C          -0.04725704008259   -7.58497016808530   -1.60396410606271
N           0.06966446064028   -8.59042182471627   -2.14250471194669
C           0.40958467502815   -5.23060869783235   -1.55891979491916
N           0.89541035042626   -4.31216969963585   -2.04392813670602
C          -1.75234229756920   -8.64830254858205    0.88782670943550
C          -2.46458494573183   -9.13829218866760    1.97318213591342
S          -2.89175275423343   -7.87616314604343    3.11697911845614
C          -2.84947836100198  -10.47635379971282    2.22471722362010
C          -2.63008471855369  -11.60279878199043    1.42175604084146
O          -1.98059061125550  -11.47837925357916    0.24962936041096
C          -1.77275635966881  -12.64549697223270   -0.51933329586404
C          -3.15038082493174  -12.77600715328141    1.98275578804220
C          -3.76154357330098  -12.57655970116508    3.20486288544061
S          -3.70102537123750  -10.90548141699180    3.67556697032325
C          -4.38130898139452  -13.53435787482696    4.04212608236032
C          -4.93957604527024  -13.30853319569538    5.29034473436950
C          -5.46427897571090  -14.47155530748632    5.84473223900573
C          -5.30948046532589  -15.59506742865411    5.01165999549030
S          -4.50990978264309  -15.21368677736613    3.54723102512969
C          -5.87401869196362  -16.71819276605100    5.65499852018502
C          -6.38905643978488  -16.30711379325450    6.90887422210144
C          -6.13874097171985  -14.88473531301967    7.06836003668697
C          -6.44794321832063  -14.09272449016489    8.13344934982456
C          -7.07783039298604  -14.57278935179685    9.30321183465494
N          -7.57763187509744  -14.92517844516520   10.27211360176637
C          -6.14286018737215  -12.71400903809801    8.14540675090333
N          -5.89779442424371  -11.59405879716289    8.15234898090818
C          -6.98110122124140  -17.33906587214033    7.62106633611705
C          -6.93193791231263  -18.54813285269790    6.93540956337760
S          -6.11720499550795  -18.37355020727670    5.36817123134291
C          -7.37482936238413  -19.84879425861614    7.23783820510030
C          -8.07045576364041  -20.35431907368252    8.30428377821824
C          -8.41409776131286  -21.76184720159442    8.44687830041262
C          -8.03297229309263  -22.80242214639552    7.64042440617943
C          -8.40900571019021  -24.14713175110143    7.85392127477054
N          -8.67422667116697  -25.25879612967516    7.95778027365719
C          -7.20997618857027  -22.72455853781917    6.49617009527750
N          -6.54493404738661  -22.76668958117666    5.56026265151156
C          -9.23205907191521  -21.89890241282251    9.64955593564817
C          -9.36567473815018  -20.63771525720375   10.25218709799733
C          -8.64800391994127  -19.62192988468828    9.45558727461218
O          -8.58265280103017  -18.44032867272162    9.71565752410063
C         -10.08311675682971  -20.45347582856149   11.41635527576268
C         -10.68862907951828  -21.56044017832789   11.99724667440542
C         -10.56534048078117  -22.82218395701132   11.40271975840334
C          -9.83920592699025  -23.00113649899301   10.23045152355724
Cl        -11.32199202553778  -24.18233600213925   12.12687515023325
Cl        -11.59022488783567  -21.37876033362681   13.44573538927890
H          -0.39885672515735    3.51627609092814    0.94728815790835
H           2.81379413709586    0.27433787250482   -1.04137513118810
H          -1.86772793113790   -1.14431489947484    2.94451166683445
H          -0.25747804868830   -3.20668910085527    0.07955685540101
H          -1.40730803408580   -9.27883447802860    0.09097509036124
H          -1.23034021095539  -12.31704035188132   -1.40373842388389
H          -2.72238806182259  -13.09768084038474   -0.81897242009525
H          -1.17226783426410  -13.37840269165657    0.02667460711601
H          -3.09018194749865  -13.74881227630133    1.52919329069029
H          -4.94841987789674  -12.33663538031616    5.74987417708162
H          -7.43955814630403  -17.24707281872327    8.58973714376658
H          -7.11134928141376  -20.56476631599498    6.46836661907039
H         -10.16763639926722  -19.47361612042364   11.85923978948071
H          -9.76990315602300  -23.98839994536375    9.80489307705432
