96
 SCF done       -213.460692206917          0.000852650285
C          -0.80510098181509   -3.26822945618439   -4.33591386992722
C           0.05966032891915   -4.32756885319934   -4.25541533532717
C           0.45891962243873   -5.10175906082975   -5.36414441708506
N           0.79614286889110   -5.77316518058980   -6.23117501320861
C           0.71928639444825   -4.69071317823261   -3.06274600767502
N           1.30078225193366   -4.98068112380755   -2.11651374631993
C          -1.26659616507677   -2.64690205793977   -5.57507980297081
C          -1.65794877684555   -1.32357370325899   -5.29829632487109
C          -2.09803287539439   -0.47689105528148   -6.29522071525043
C          -2.16088090445546   -0.96494057036798   -7.59500459342418
C          -1.78567811074343   -2.28495338633633   -7.87458919698363
C          -1.33154175074256   -3.13244357028336   -6.86945963490549
Cl         -1.88516454096001   -2.87685453404457   -9.48203531661666
Cl         -2.70436418984501    0.05739266284820   -8.86184479940570
C          -1.52972762361020   -1.06175951508522   -3.84787241515721
O          -1.72513916623577   -0.02792220586760   -3.25590944423844
C          -1.17031697320306   -2.37994333969760   -3.25342778810464
C          -1.33386164686292   -2.56684793215654   -1.91440489370532
C          -1.49592402146420   -3.75459198161547   -1.16942677404116
C          -1.46846674787025   -3.83703548920351    0.21697180917594
C          -1.75380558822610   -5.11575364281769    0.67797205732921
C          -2.03232092672251   -6.02206091079342   -0.36751241348064
S          -1.92918394213082   -5.29971144270253   -1.90292163061294
C          -2.33934900073292   -7.28222974404562    0.19640723007829
C          -2.25941316540427   -7.17884253394388    1.59688466918214
C          -1.88249844146439   -5.81583224715759    1.94471501342966
C          -1.69796441382747   -5.30857280679441    3.19645988131117
C          -1.86070638647710   -6.09965036541743    4.35395664884840
N          -1.99479357493101   -6.74757264369364    5.28997026243544
C          -1.34222905410128   -3.96050727821957    3.41755839159543
N          -1.06116554462637   -2.86498739378385    3.60291634325457
C          -2.56501805306385   -8.37169146293501    2.24720500079214
C          -2.87027192971766   -9.38394119871090    1.35235595308096
S          -2.77516172595564   -8.85263809303114   -0.31837689997150
C          -3.24922725570876  -10.71531593254380    1.65622796578991
C          -3.47939064474539  -11.75066047026781    0.76739088026580
C          -3.86546610062097  -12.91998784642257    1.41965078218035
C          -3.93596757022213  -12.77005291164230    2.81639319387236
S          -3.51175771056274  -11.19745754920167    3.32664354375922
C          -4.36181975087097  -13.99779398344971    3.38189155505475
C          -4.55115464390168  -14.92782284764708    2.34395035231524
C          -4.24252482941001  -14.28266240095861    1.07710000504387
C          -4.30361771629881  -14.83506779653570   -0.16771346833408
C          -4.69081579802549  -16.17681302681387   -0.37180860195714
N          -5.00613363462113  -17.26743894147114   -0.53035075828778
C          -3.99019551463495  -14.09731864242730   -1.32933838018360
N          -3.73710653262933  -13.49322707798626   -2.27006991330241
C          -4.99364723358619  -16.16774365671428    2.80067389247367
C          -5.15224944835064  -16.18526776726413    4.17528133697354
S          -4.73358855503009  -14.64678998190399    4.91629824821771
C          -5.61605719142159  -17.25832997969116    4.97655656852569
C          -5.86993264121225  -17.24233469919278    6.33785606171364
C          -6.34903178901286  -18.46893465478832    6.79158060290444
C          -6.45128001916841  -19.42884752092283    5.76836802840896
S          -5.96325412650678  -18.81757488444557    4.24805917338585
C          -6.95058059113091  -20.63062248198572    6.32188729352978
C          -7.17818627911736  -20.42803575988306    7.70312476620923
C          -6.79129021501926  -19.06870355803167    8.04284456527117
C          -6.81759403360755  -18.47605719954489    9.26979050338807
C          -7.22207323591510  -19.15166755379802   10.44247253124076
N          -7.52412193655784  -19.68114286713033   11.41270584000659
C          -6.41443152152899  -17.13557559991263    9.45336530625626
N          -6.09274859602658  -16.04504391493694    9.60051803410702
C          -7.70541715689725  -21.54279994347012    8.33876089889690
C          -7.87889013860791  -22.61079309466826    7.46598736559893
S          -7.35401252211228  -22.20293142912413    5.82417134756329
C          -8.32655096157244  -23.93141325754076    7.66341504057656
C          -8.98949135829555  -24.49155031422676    8.72179026014701
C          -9.29467028533381  -25.90846774130736    8.83418258636338
C          -8.74861922717094  -26.92792965726143    8.09984293487591
C          -9.07649506011570  -28.29011887849491    8.27442952835676
N          -9.30127651075392  -29.41202853073460    8.36033507253280
C          -7.76367414704345  -26.78265029927026    7.09898694442999
N          -6.95085002239279  -26.75022101681312    6.28846089295607
C         -10.23100374064681  -26.07389118423421    9.94178411112337
C         -10.44514729498982  -24.82218742123606   10.54275013030508
C          -9.66828225774942  -23.78368040903004    9.83456554843966
O          -9.65570624314542  -22.60177311168845   10.09824153076109
C         -11.28229281176609  -24.66684096177389   11.62869358383564
C         -11.92574408365063  -25.79166568381783   12.12937476387944
C         -11.72231381018383  -27.04303747819875   11.53447066615847
C         -10.87618298363374  -27.19381151007000   10.44125386499016
Cl        -12.52944238389750  -28.42359987349830   12.15777368181467
Cl        -12.97396729335072  -25.64436314657516   13.47974568838237
H          -2.38457121100836    0.53801435706027   -6.06923832016090
H          -1.05307837886401   -4.14439663755336   -7.11558778862207
H          -1.45262646666835   -1.65181629708257   -1.34057161890086
H          -1.23010470561705   -2.99310000510384    0.83897709364953
H          -2.56936777819564   -8.51561146971362    3.31278973143737
H          -3.36654206542062  -11.64077773652850   -0.29629081917041
H          -5.20304154826722  -17.01996223340782    2.17928784652698
H          -5.71564669268918  -16.37077478813783    6.94835934793991
H          -7.96352314483400  -21.59622424488414    9.38016184640475
H          -8.11993974699186  -24.58474429461523    6.82348238499181
H         -11.42839372616548  -23.69574556868635   12.07477514653977
H         -10.74810437024347  -28.17225933311704   10.00842657204907
