93
 SCF done       -190.563137224937          0.000629428348
C           1.59071880299522   -0.84947555067873   -0.42998052122314
C           0.28131532502140   -1.08273407352380   -0.76261088814079
C          -0.36950788566112   -0.48963672369233   -1.86537319647604
N          -0.95173699989473   -0.03580795806306   -2.74354177202872
C          -0.60294391041274   -1.86141122902508    0.00909221943133
N          -1.36936731484949   -2.46299158720970    0.61674784444675
C           2.44410340796007    0.14969591383775   -1.07251811799906
C           3.49841150170378    0.47634799744403   -0.20044028083537
C           4.44278779452180    1.42638060571135   -0.53159159322942
C           4.34038524644295    2.05455165937416   -1.76703393307064
C           3.30453134630650    1.72068713707954   -2.64724490344783
C           2.34779273814146    0.77036537655083   -2.30570004662760
Cl          3.20456378407968    2.49040998544041   -4.17784665727023
Cl          5.49608122042814    3.24233035137829   -2.21518407978839
C           3.40385316645120   -0.35573547107336    1.01843262660603
O           4.10281413960723   -0.31663044377088    2.00383281945951
C           2.28670878686105   -1.30245457940554    0.75453363211248
C           2.15221489965519   -2.39802068491912    1.55900841248185
C           1.46049326937836   -3.59663642573897    1.30259879579081
C           1.03101494383517   -4.11177594461360    0.08647261456535
C           0.39597714042237   -5.33584518871768    0.22591718620738
C           0.33671689914603   -5.77892246160972    1.56877018268884
S           1.09225949889141   -4.69081734114884    2.63784255640642
C          -0.36640388661169   -7.00222411693518    1.60231650583205
C          -0.75561241187551   -7.33260607944543    0.28915944938805
C          -0.29177137651992   -6.29240985796434   -0.61569873933263
C          -0.49717906964022   -6.21202079415850   -1.96366456512119
C          -1.20447187186857   -7.20769793427349   -2.66680506131967
N          -1.77425219290105   -8.03307310596287   -3.22375465568406
C          -0.01347823463382   -5.12131100364559   -2.71535286642807
N           0.39109567073015   -4.22743367728940   -3.30902635777134
C          -1.48061621218370   -8.51369074947929    0.21182141805658
C          -1.65908559100318   -9.10215223796669    1.45739735588979
S          -0.90064447349726   -8.16708554300464    2.73786905658269
C          -2.37640511644164  -10.29448547129707    1.75499155944927
C          -3.02846820663775  -11.02720706207529    0.78733696882789
C          -3.77950907283860  -12.17129340419211    1.02883940444044
C          -3.95265748844053  -12.70048930966898    2.38401870183092
C          -3.38879282954608  -12.15633149269341    3.48429735883323
S          -2.39765452324312  -10.75631845794399    3.45261519385252
C          -4.80555987730604  -13.82813264769478    2.23682435727136
C          -5.15318536016061  -13.99681363573889    0.89216117765224
C          -5.98765345415322  -15.12381553401097    0.71071590860754
C          -6.24922365803759  -15.75215732073214    1.88640723744388
S          -5.49798751670479  -15.01797210934575    3.26093663328556
C          -4.51400235952640  -12.96380284569023    0.11774761973261
C          -4.56576844110618  -12.73450269833247   -1.27469612783330
C          -5.40858739284244  -13.33332410010700   -2.15828087176096
C          -5.42077517686471  -13.06967310413927   -3.54959488351402
C          -4.53871404808819  -12.32028397404860   -4.31073296040729
C          -4.90149412303435  -12.29561852961919   -5.65321111283896
C          -6.07574854480659  -13.01451541769235   -5.94834510903930
S          -6.71519827052702  -13.75432095175139   -4.52412179389834
C          -6.45804750041289  -12.97173374095919   -7.28086641872805
C          -5.57741734585324  -12.22026104819049   -8.04458389371235
S          -4.24543739232689  -11.57894909746086   -7.07197339327261
C          -5.53804810600334  -11.91339574406221   -9.41867156908366
C          -6.48315406868161  -12.05535391735408  -10.39780985703840
C          -6.25483921405490  -11.68831793748243  -11.78648344332586
C          -5.03932184558951  -11.54376969917374  -12.40373818191101
C          -4.88236383050513  -11.20830590267348  -13.76474420843682
N          -4.68798649060251  -10.93280780378754  -14.86219608909922
C          -3.78427991511461  -11.76684474616050  -11.79851666770689
N          -2.72636903950557  -11.95475549437658  -11.39261093447964
C          -7.55180001678710  -11.59282583528438  -12.44183018530481
C          -8.54713282125394  -12.02099748797498  -11.52946148230956
C          -7.91919732632357  -12.39119536657901  -10.24782194826366
O          -8.49598053851262  -12.85556494753994   -9.28569683114080
C          -9.88237195782197  -12.05198882234496  -11.85197219728208
C         -10.25410244866723  -11.63227659153757  -13.13270482080797
C          -9.25294616924147  -11.20065545406519  -14.03557520384945
C          -7.90141935740674  -11.17591148483434  -13.71201265304500
S          -9.94161872804161  -10.71912781636724  -15.55406304089052
C         -11.52997175914965  -11.09283118760095  -14.97994033369046
C         -11.55237075373463  -11.55684449222247  -13.71154468777483
H           5.23959111373048    1.67329955300983    0.15195709568452
H           1.56695819841160    0.52959513016945   -3.00871319285108
H           2.71498431073139   -2.35336278251040    2.48634662713004
H           1.22032867985364   -3.62615426591580   -0.85339636184738
H          -1.86340309897887   -8.92221171241265   -0.70414157389778
H          -2.95990650586321  -10.66961649583858   -0.22876736695533
H          -3.52639458204128  -12.56423706826105    4.47312136046798
H          -6.37498785436893  -15.47301261724029   -0.22825938094038
H          -6.85101234293904  -16.62625904126912    2.04125651906053
H          -3.87970674244834  -11.99072992523032   -1.65512199850624
H          -6.15311175433741  -14.02934977102519   -1.80415670300846
H          -3.67187525179915  -11.82504042796567   -3.91590319651861
H          -7.32963287913898  -13.44715004771517   -7.68955379188366
H          -4.60573092089149  -11.44892497528147   -9.72091879874561
H         -10.61680461666916  -12.38599520639819  -11.13552013347516
H          -7.17703186622600  -10.83352299714641  -14.43199191542958
H         -12.36203021115446  -10.93828493392255  -15.63908537445709
H         -12.44852974716236  -11.83903799082450  -13.18916746814776
