89
 SCF done       -182.456165704172          0.023694320921
C           1.47887132682979   -2.08828187250803    1.84556884441804
C           1.79112280886066   -3.37089892764516    2.21930469995118
C           3.08502952276427   -3.80085963659913    2.56447193532749
N           4.09436108091390   -4.26452171428633    2.84865120583438
C           0.83240687788625   -4.39538948424341    2.34689207634959
N           0.14057354592947   -5.30765987011400    2.45418745527757
C           2.32086057610164   -0.91768768279703    2.08059760587094
C           1.52422071776937    0.23814890642236    1.98823880257032
C           2.04322573673469    1.49430258015821    2.22366388052635
C           3.39107673362142    1.60143426143629    2.54687919147435
C           4.19122174052922    0.45729638597493    2.62868182775195
C           3.66234575046175   -0.80902696070648    2.40296690276777
Cl          5.85662763925269    0.60631785771441    3.02128527934747
Cl          4.07328480636318    3.14864134625800    2.84937074266184
C           0.14277487240638   -0.14447092046432    1.61275991374189
O          -0.81638146859922    0.57852599504774    1.48104086737716
C           0.20029175206104   -1.61197321502200    1.38419597636963
C          -0.82819281653211   -2.23059495887317    0.72447296506209
C          -0.82723836862952   -3.47804270248684    0.08137064423842
C           0.23357633258940   -4.27499113456086   -0.35145894759946
C          -0.17471659023756   -5.51462700515994   -0.91109520676517
S           1.21335509904361   -6.42920483089160   -1.37500847249642
C           2.21352670453888   -5.07515875533054   -0.81755160937106
N           1.57316952255870   -4.06965934420690   -0.33816133644017
C           3.68624770662397   -5.15690999874337   -0.88035959311923
C          -1.54902197788744   -5.69004147495213   -0.94862792688490
S          -2.33733947741577   -4.26962404344148   -0.31435837939951
C          -2.26564030955466   -6.83591948249565   -1.34033980316815
C          -1.74137859317158   -8.07886825687756   -1.67186567452050
C          -2.73692527793758   -9.06603211444443   -1.90864964543398
S          -1.97753930642288  -10.57385572839438   -2.28955883504449
C          -0.39889621004452   -9.75317054529550   -2.10489702941040
N          -0.46457777225515   -8.51703419882859   -1.79449678373316
C           0.85024354843183  -10.50914078645415   -2.31114244415979
C          -4.03498408819225   -8.60722347237039   -1.80516680759827
S          -4.00735111524458   -6.90217268920291   -1.38157201500134
C          -5.25466425546970   -9.31836712324696   -1.96338908194589
C          -6.47385477723694   -8.68838846367864   -2.09768846603859
C          -7.68974255253347   -9.34729383623806   -2.23712830613244
C          -7.77109246746208  -10.80868492196978   -2.17988986391839
C          -6.69985058861609  -11.62548664095292   -2.07123304803699
S          -5.08339949854057  -11.06714082853414   -1.96827796329450
C          -9.15188906913454  -11.11675962148442   -2.31065155834227
C          -9.89422602438159   -9.94559036502556   -2.48251233933776
C         -11.27557401765112  -10.22162319436136   -2.60902601842730
C         -11.52857798207167  -11.55522637475643   -2.54423001438973
S         -10.12131230474884  -12.53283820670166   -2.30953608035161
C          -8.98697740332874   -8.81981722362662   -2.45167344029075
C          -9.28134588908425   -7.46542340991139   -2.67782333951243
C         -10.49988246834743   -6.99395089257483   -3.08672932629929
C         -10.72832138254696   -5.64889230201887   -3.40311082758669
C         -11.91962078357502   -5.16740874247724   -3.89715949309473
C         -12.20234556641629   -3.81257880744767   -4.31250989026649
C         -11.36512271422315   -2.72537327071232   -4.23374444969897
C         -11.69779075219587   -1.43663660636507   -4.69791213418121
N         -11.93599886529285   -0.34695458544450   -4.97669961523141
C         -10.06550429626476   -2.72659776331485   -3.68828791014710
N          -8.95195628134619   -2.67818334860873   -3.39029771628375
C         -13.56177222505806   -3.78541581998723   -4.84807230937714
C         -14.11612171179595   -5.08377328616891   -4.74438976488334
C         -13.12346016597974   -5.99088283006073   -4.13414095985829
O         -13.29614708604281   -7.16955448445476   -3.88534142474284
C         -15.38331342127974   -5.38758804472234   -5.17640015104786
C         -16.14348446339201   -4.35920461407841   -5.74316834284019
C         -15.58291610223059   -3.06466488849818   -5.84252995678969
C         -14.30084309786562   -2.75738461427738   -5.40187365360042
S         -16.68867267957673   -1.94496565861438   -6.58087858580157
C         -17.87471053912775   -3.21373686612193   -6.73592337429645
C         -17.46503499283277   -4.41496545545929   -6.26500343160691
Br        -19.53509333838829   -2.83866975699407   -7.52470795668268
H           1.41698291283472    2.36996043853301    2.16154394183147
H           4.30477189591005   -1.67153128129529    2.47424084325064
H          -1.74275127107673   -1.65082948504774    0.64760629374220
H           3.99889601200387   -5.90467224470821   -1.60401427548062
H           4.07900945825164   -5.43096946369751    0.10050944393444
H           4.09996279654472   -4.18497463935252   -1.14042178625148
H           0.88266292728095  -10.91457610615694   -3.32162427721649
H           0.90413518797005  -11.34438217326488   -1.61398751055540
H           1.69902794645085   -9.84891443501401   -2.15534869379784
H          -6.45773521376684   -7.60637883712179   -2.09408354184884
H          -6.78586607794197  -12.70035875087302   -2.06602619451540
H         -12.05945426089226   -9.49790352360309   -2.73426119702056
H         -12.48199398583435  -12.04240322435809   -2.60632993716445
H          -8.46578358445580   -6.75903112074167   -2.57727361377040
H         -11.31533608111240   -7.68063278832445   -3.22780598745759
H          -9.90158264138284   -4.96249406439615   -3.27449431600463
H         -15.77656918818444   -6.38774377569484   -5.08116683300551
H         -13.92030232413415   -1.75502688500944   -5.50447648697540
H         -18.06670577426850   -5.30527031867028   -6.28708538251588
