98
 SCF done       -209.721737920768          0.000537893478
C          -4.52173803297175   -2.07021130165663   -0.88467388314888
C          -5.10407900283445   -2.82875132184728    0.09680824204233
C          -6.47643018573950   -3.15063312990353    0.13309691349179
N          -7.58036589399556   -3.45512237966697    0.20569349051562
C          -4.41440794487654   -3.29072901862347    1.23707407766293
N          -3.90223154886783   -3.65140288302895    2.19917286494520
C          -5.24502694018122   -1.31795443240726   -1.90664891387835
C          -4.41958127807325   -0.27776198314911   -2.37297215737896
C          -4.86262915897215    0.62875806192798   -3.31439015834308
C          -6.15394519789625    0.48856900705660   -3.80895631727296
C          -6.97565704418913   -0.55182166390948   -3.35810627847028
C          -6.52961303760816   -1.45845286683037   -2.40245752009049
Cl         -8.56267926894232   -0.71930914342959   -3.98885742207933
Cl         -6.74168406981081    1.59790272573886   -4.97912651574875
C          -3.09830652267965   -0.35918032019818   -1.71166200923971
O          -2.16061999077877    0.39341530732865   -1.82339049955917
C          -3.14784215557938   -1.61452532511590   -0.91276371586595
C          -1.99729109226549   -2.14994183812751   -0.41992265971368
C          -1.74281261139729   -3.47546822213929    0.00112992887415
C          -0.74162432906157   -3.87576471179263    0.87186050138365
C          -0.74777281347192   -5.24914967334358    1.08725055580239
C          -1.72763861306243   -5.91825294068336    0.32212753264758
S          -2.65803907962253   -4.85077081335473   -0.62217375783627
C          -1.65849440928291   -7.30005177494889    0.60912858074525
C          -0.66035061111746   -7.50667771348157    1.57904730845046
C          -0.04428092359286   -6.22566992443535    1.89710083684549
C           0.98027955788405   -6.00137176141039    2.76896134402338
C           1.57970590410500   -7.04714235932713    3.50214406311603
N           2.06703741656132   -7.90070054652960    4.09266339024960
C           1.51853202551665   -4.71463731936951    2.98378370803657
N           1.96696565589199   -3.67378119510808    3.15546734385713
C          -0.54309164405756   -8.83788525479237    1.96381825441918
C          -1.42643686811077   -9.65847502106935    1.27964296870249
S          -2.42426953974700   -8.75627773954744    0.14598609867804
C          -1.58722623408003  -11.06549665632943    1.43400232801927
C          -2.28156289422431  -11.84308158981301    0.53580648434892
C          -2.47535193126605  -13.21554853504388    0.65974051567681
C          -1.98087039877484  -13.94672603111799    1.82842100023891
C          -1.25522138658257  -13.38882803432668    2.82258876727225
S          -0.82604462561315  -11.73136073792893    2.87413200854023
C          -2.39755489595857  -15.29148855215413    1.63433609279544
C          -3.07626793842540  -15.41451672272931    0.41825854850017
C          -3.51878395477448  -16.74095145446060    0.20802782751094
C          -3.16569345753526  -17.56001632459018    1.23331775539711
S          -2.28728959649859  -16.77097201673277    2.49585483722224
C          -3.11384114420632  -14.12090442525718   -0.21981557718921
C          -3.59408168783747  -13.78010847664932   -1.50035961597399
C          -4.03345912048093  -14.66015610514677   -2.44368174266464
C          -4.40791971406140  -14.30638033982059   -3.75802051765052
C          -4.46492232911557  -13.05072946223503   -4.35560722744222
C          -4.81650457999953  -13.12434024844987   -5.69646118211278
C          -5.03813152915609  -14.44387866711510   -6.14349307567699
S          -4.81887682509426  -15.58757442396730   -4.89227344062018
C          -5.35727153757113  -14.41999921052547   -7.51616619605195
C          -5.34383072549225  -13.06627162332788   -7.94627576989331
C          -5.00480006281299  -12.21620917742756   -6.81841633474603
C          -4.86673622729496  -10.85883380999817   -6.80439095683333
C          -5.06353886584130  -10.06732816981321   -7.95582411110165
N          -5.22210273278604   -9.41533085819568   -8.88524231192527
C          -4.50365909970174  -10.15923307136860   -5.63516245590061
N          -4.19857191105713   -9.59489728802262   -4.68402097938628
C          -5.62726356423579  -12.94436029736356   -9.29085298713503
C          -5.84908331720960  -14.18222994734389   -9.91178155025462
S          -5.70303140027335  -15.52183020669622   -8.76777054639981
C          -6.14011540635568  -14.28149907029805  -11.27713804888860
C          -6.34905586807210  -15.38728238935013  -12.06745716289024
C          -6.63871768308413  -15.37627835117297  -13.48849120368844
C          -6.79700495023256  -14.28554478338086  -14.30317907580043
C          -7.07603512041300  -14.36476218757253  -15.68458607724654
N          -7.29945563631302  -14.35482109559034  -16.81031373226291
C          -6.71271191409845  -12.93496433216884  -13.90299736521402
N          -6.66377258105314  -11.81301087156155  -13.66260821071363
C          -6.74233092729250  -16.76991626933515  -13.92246589179721
C          -6.53094624556436  -17.60743377826595  -12.81338845939684
C          -6.28772357975860  -16.77952985896384  -11.61765072300050
O          -6.07742550286998  -17.18943833516818  -10.48885488512023
C          -6.56500188342100  -18.98258653339294  -12.91753779338821
C          -6.81910657025274  -19.54112539040398  -14.16414476347657
C          -7.03448480095832  -18.71706955102737  -15.27404228438381
C          -6.99763730074439  -17.33058544985426  -15.16270756718987
Cl         -7.35097922265555  -19.41910616043926  -16.80861793881385
Cl         -6.86893505689653  -21.24839281376883  -14.33881495163548
H          -4.22209317422853    1.42691475143132   -3.65475097996807
H          -7.18449637914148   -2.25093867159874   -2.07817314995167
H          -1.14125557282348   -1.48148621116695   -0.40799220666175
H          -0.07936341396690   -3.17647909436533    1.34949021339158
H           0.15169643263192   -9.20913409540065    2.69542774515386
H          -2.69520203905682  -11.33197101722768   -0.32382158733728
H          -0.88190983274796  -13.95797675539834    3.65917966785193
H          -4.08098668697741  -17.09232627911366   -0.63707825981698
H          -3.37220970364499  -18.60768809215817    1.33292388238693
H          -3.55326310763436  -12.73129217216520   -1.75887159109179
H          -4.06089379876911  -15.71414781092488   -2.21675962655627
H          -4.25441730707927  -12.13855399778659   -3.82936371584809
H          -5.67451225221065  -12.01720793182793   -9.83466970125424
H          -6.19397902629259  -13.31653890135181  -11.76639898800269
H          -6.39822791767759  -19.60518697865325  -12.05282481885883
H          -7.16780303255212  -16.73096784973685  -16.04154660703263
