88
 SCF done       -180.361426836276          0.001066478392
C          -6.36929900135446   -3.50760854002672   -3.98287774117112
C          -7.09548135635350   -3.93398713814190   -5.06676081355861
C          -7.24402112380436   -3.18705370725790   -6.25384032410615
N          -7.40635439827815   -2.62401729981451   -7.24102739957799
C          -7.78893461285773   -5.15832731553752   -5.15579482284202
N          -8.39659644978474   -6.12240689495261   -5.29727034673604
C          -5.69620817487327   -2.21009661897032   -3.87986639995797
C          -4.97858148328713   -2.16849342012958   -2.67325413080382
C          -4.24999297705657   -1.06104885605780   -2.29373125960742
C          -4.28678304849930    0.06044450467690   -3.11221426257320
C          -5.05015146879016    0.05174286009235   -4.28128295674467
C          -5.73502303612937   -1.08801986260509   -4.69006174794750
Cl         -5.20107273323344    1.47943445376733   -5.22480773218282
Cl         -3.41503902112850    1.46101561827258   -2.65251112483028
C          -5.23152482460111   -3.40696855045609   -1.90565584273535
O          -4.73471620420512   -3.70894113379741   -0.84111497283438
C          -6.18924989859664   -4.18863436977799   -2.71964663055915
C          -6.75568600689309   -5.38937936201895   -2.35021716209023
C          -6.89480085206314   -5.91610930545399   -1.04083046657149
S          -6.81767831628931   -7.69012395291768   -1.07896324791959
C          -7.72104999961866   -8.16109877768267    0.35119619689449
C          -8.37934355575624   -9.34610343803261    0.46489720373330
S          -9.08866726993308   -9.54211023523211    2.01817208241939
C          -8.51451428370125   -8.00200148233130    2.51521249403746
C          -7.79936510533936   -7.38447529868392    1.53535666302592
S          -7.07718586312268   -5.79444380031138    1.74604384822378
C          -7.07091406596132   -5.15569422609215    0.09896145648625
C          -7.26928775590165   -3.75396027122403   -0.00035686021866
C          -6.99898646435505   -2.82520771678306    0.95458666257304
C          -6.92808378265169   -1.43846997569591    0.68547919918973
N          -7.13861953272032   -0.90015627834668   -0.57034655597127
C          -6.77310417886562    0.40534184440009   -0.54938692778504
C          -6.59963040921469    1.52763255740476   -1.34557129914526
C          -6.08978732759296    2.52466440843776   -0.50042491984524
N          -5.98449230756697    2.02698089772993    0.78334792815400
C          -6.36737357645053    0.72307740480104    0.77605066752411
C          -6.46846890988247   -0.42866999064265    1.54651163390881
C          -5.66469174493249    3.83558214872507   -0.82554747473410
C          -5.43969960117065    4.24990265667488   -2.09882412753269
C          -5.03039318155940    5.56169527510966   -2.48211022059285
S          -5.48440162548299    6.80629002550362   -1.31814460945676
C          -4.36578516685038    8.11521096355949   -1.67397121645413
C          -3.93666620946259    9.00806544694750   -0.74184649020896
S          -2.91491472978085   10.20736626131942   -1.42798701057773
C          -3.05038378355504    9.48617187696087   -2.98387212334699
C          -3.85523776273029    8.39049071256383   -2.96851114431085
S          -4.24321099123064    7.44208317999724   -4.39479643410801
C          -4.39681468075764    5.81067956528907   -3.68452112879631
C          -3.82594744130378    4.76134382030048   -4.43961967086030
C          -3.19956529093870    4.88479947214992   -5.64906633187019
C          -2.62772985158026    3.76547255281102   -6.27521758332581
C          -1.99224538795703    3.77424296943615   -7.49265524646311
C          -1.40194125683383    2.63926528596057   -8.16472905768778
C          -1.36743289544802    1.33579414345667   -7.73323885884629
C          -0.76055904719730    0.28135783160264   -8.44776275265636
N          -0.28528639973624   -0.62508602040354   -8.96802559743234
C          -1.91637460995253    0.83327600476282   -6.53743295835596
N          -2.32993395112872    0.31467541327329   -5.59834893482493
C          -0.83176010708660    3.11973530707876   -9.42362844856843
C          -1.06342689205057    4.50147461226362   -9.52964653442304
C          -1.79667861794901    4.97541831777667   -8.33339508956638
O          -2.14627919098587    6.11527148713640   -8.11293376153992
C          -0.63727906575385    5.23160247392244  -10.61914586005937
C           0.04016316258568    4.56632605403993  -11.63364721274305
C           0.27563229124844    3.19128214154050  -11.53780362815568
C          -0.15662234056704    2.45934112909643  -10.43692364188811
Cl          1.11474863169559    2.37944072564482  -12.79839824725423
Cl          0.58911796053597    5.43907722709393  -13.00732269516004
H          -3.68759303414089   -1.06381321825954   -1.37351901762099
H          -6.29306599519880   -1.06381211301203   -5.61162123328782
H          -7.10969552139568   -6.04443639311225   -3.13725750535342
H          -8.46725157680972  -10.11576733354591   -0.27402902095645
H          -8.71929438179028   -7.63693305480612    3.50073568178114
H          -7.57438390318506   -3.41489743502088   -0.98154272048371
H          -6.68966820668319   -3.13961798721154    1.94039541159233
H          -7.44610259071330   -1.41201248483710   -1.37736997194868
H          -6.81543990787852    1.63735296203507   -2.38832732471569
H          -5.61588928811290    2.54133472057490    1.56498606222505
H          -6.22967049454347   -0.56346538427829    2.58208367274692
H          -5.45668528871055    4.50360748220259    0.00047394175761
H          -5.58358634598178    3.53899481556343   -2.89722496853127
H          -4.17845917629703    9.03363178724589    0.30102737230914
H          -2.54884535894500    9.91588350211321   -3.82652389372144
H          -3.85124918222611    3.77835176325213   -3.99090333490357
H          -3.13186244552518    5.84257019856938   -6.14291194516316
H          -2.70006869777587    2.82447778690214   -5.74440753338625
H          -0.82711846800373    6.29163144057831  -10.67870847351515
H           0.04382901541807    1.40129315087391  -10.40094119608377
