87
 SCF done       -183.204849106372          0.000387906024
C          -5.86477600958185   -2.56992715894423    2.68154055710512
C          -6.23961836452147   -3.12006423908964    3.87800308657656
C          -7.31022176755229   -2.64089246858847    4.66362679425685
N          -8.16740568016828   -2.30057878290145    5.34638852353745
C          -5.61463765393747   -4.21530626383196    4.51357641450845
N          -5.15523447759287   -5.08035940619088    5.11258940889438
C          -6.47005135920880   -1.38811668391378    2.06845362734445
C          -5.77863975918671   -1.09428025821687    0.88129361652244
C          -6.13281668226982   -0.03854772071119    0.06668905831762
C          -7.21606949976248    0.74421507859341    0.44431902202916
C          -7.90561602142899    0.46882676407479    1.63014570925655
C          -7.53882180507102   -0.59459635237499    2.44962543717299
Cl         -9.23411017049033    1.45301316547255    2.08922584878502
Cl         -7.70920072846638    2.04995823628517   -0.55411860525903
C          -4.72756487746680   -2.09863437267633    0.66481819295343
O          -4.03079498286072   -2.20270057272735   -0.33274838467669
C          -4.77908812490125   -3.00550918127644    1.81995158019553
C          -4.06926074156871   -4.17197772752753    1.97462243535657
C          -2.95031186394556   -4.66507468368058    1.25490464950751
S          -3.01570850973324   -6.44148666271361    1.28061482488286
C          -1.59451315087900   -6.98689169341436    0.40805300806843
C          -1.28319746490407   -8.30945633954176    0.31731833970336
S           0.11454262992167   -8.58361012541410   -0.64004620300949
C           0.29723436292857   -6.90204148615432   -0.91399322201844
C          -0.68090808155846   -6.17345158239122   -0.30677085920674
S          -0.70786529881277   -4.41775240144367   -0.42663798527482
C          -1.97841485380383   -3.88277556326900    0.66647449626033
C          -1.93008413877101   -2.48659937868098    0.93709647741575
C          -1.45283262639715   -1.54789495378576    0.07975708226576
C          -1.59403256143218   -0.14696053064864    0.27566604927034
S          -2.10170603889232    0.31720623385632    1.92311693674024
C          -3.29549979365158    1.56195682272139    1.59526418959896
C          -4.39464694657238    1.79316173575254    2.36160687111562
S          -5.30040609141227    3.13560447223584    1.78709073240092
C          -4.20813637436594    3.36613702039523    0.48081483724367
C          -3.18719454522756    2.46753698591715    0.51098245779516
S          -1.83911113582041    2.47649687403977   -0.61581609632725
C          -1.39926402016799    0.76510743278573   -0.73625794228901
C          -0.77523744435126    0.41398058644764   -1.97293196082336
C          -0.77977689493521    1.16729157386564   -3.09654124417475
C          -0.05872118855709    0.86471837247880   -4.29761766776329
S           0.37737887969392    2.37362577679732   -5.14821247799362
C           2.02292057536615    2.02932734887317   -5.65922118747614
C           2.99588745768735    2.97428744105756   -5.75979950516476
S           4.48719428537748    2.30439968171083   -6.28998086609765
C           3.80093564010134    0.72951994113120   -6.35409531283559
C           2.48726059665306    0.73403086547822   -6.00277429607535
S           1.46212938815025   -0.69295523276495   -6.03725977520090
C           0.29439879200381   -0.38037146994788   -4.73576450547976
C          -0.28467804440741   -1.61871212823826   -4.30240660442785
C          -1.57589973044989   -1.80839124604647   -3.92416570970357
C          -2.04362475960176   -3.07516911250709   -3.51421069189928
C          -3.31978647459205   -3.34020995616813   -3.10259339554079
C          -3.78599855185331   -4.57989660798727   -2.51888001215041
C          -3.18355597349517   -5.80843544751468   -2.58482632347288
C          -3.73614080423421   -6.98437131615469   -2.03540648519276
N          -4.12685964457514   -7.97661327592509   -1.61101923971492
C          -1.96901537138704   -6.08395376066253   -3.24589520295186
N          -0.98412112369030   -6.39264295907976   -3.74972519177649
C          -5.06856947414394   -4.30095918656128   -1.88239152537038
C          -5.50618866685308   -3.02661424673805   -2.28639712018860
C          -4.43122695427211   -2.35806769761803   -3.05587024529705
O          -4.45686842235606   -1.23462593465675   -3.50476947526933
C          -6.70058951483406   -2.49895873790486   -1.84130849761431
C          -7.41495369080857   -3.20924134938713   -0.88503852298401
C          -6.94263048311364   -4.43968814223895   -0.41790113853490
C          -5.79001405449037   -5.01510999582986   -0.94195596723738
Cl         -7.77263637516642   -5.24383889327787    0.85498022020830
Cl         -8.85119359864627   -2.53264747139609   -0.22351689009551
H          -5.58546903270367    0.16388213290496   -0.84101518196313
H          -8.10315663397079   -0.78169281613520    3.34837234131151
H          -4.46510331307400   -4.88668904972164    2.68791341200069
H          -1.81646489114887   -9.12873860669143    0.75371560976206
H           1.09781034927739   -6.53191184123596   -1.52080765552066
H          -2.40866212234698   -2.16709448636632    1.85364230095739
H          -1.07010383729969   -1.88297358324578   -0.87237115018187
H          -4.70234779972829    1.26818920949243    3.24259260060732
H          -4.36231462345654    4.15911541042004   -0.22203281209658
H          -0.22534555668812   -0.51473897637197   -1.98652976320586
H          -1.26631245482771    2.13400414825069   -3.09262807441055
H           2.90949590266962    4.02397308323837   -5.56704290092441
H           4.39185899749758   -0.10834744939258   -6.66301734099696
H           0.35164354412895   -2.48946913442929   -4.41835173980959
H          -2.26904012651839   -0.98104986761958   -3.90298834534149
H          -1.30893946867898   -3.87022782577605   -3.46987259021461
H          -7.04675636268584   -1.53907429917217   -2.18948579780733
H          -5.46350573581757   -5.97412769837529   -0.57213706038179
