102
 SCF done       -216.427411031897          0.000734117640
C          -2.82847055039189   -3.23799069843257   -4.22135748224956
C          -4.05285061755110   -3.76653572173331   -3.90713411842741
C          -4.98649800373873   -4.20897633153821   -4.86632333574914
N          -5.76737435771351   -4.59986254820624   -5.61057069936130
C          -4.54777266507765   -3.82237083521184   -2.58746935390900
N          -4.99048089968238   -3.83597043596398   -1.52856000034555
C          -2.39157496111857   -2.85964817257891   -5.56328979126065
C          -1.37909971621157   -1.88868239340304   -5.45118721448001
C          -0.80620949042058   -1.31084870974912   -6.56568747933100
C          -1.24439734367939   -1.72004652615456   -7.81948993605570
C          -2.24143549575861   -2.69574687920238   -7.93762576104047
C          -2.82528579023832   -3.26810199792211   -6.81236269425652
Cl         -2.75886928416790   -3.20200205436444   -9.49374162742937
Cl         -0.55488689642453   -1.02497023201215   -9.22964791715233
C          -1.07344063998392   -1.65398331142385   -4.02212764033297
O          -0.29965837757589   -0.85761140108429   -3.54689169120471
C          -1.88181413539975   -2.66569959790763   -3.28871186863201
C          -1.57596487036410   -2.95240989933204   -1.99210213987203
C          -1.85719727006235   -4.10480314088046   -1.22836881765044
C          -1.71284869565014   -4.21131345001928    0.14896792517733
C          -1.98480474707232   -5.49163173493944    0.61257532150387
C          -2.30609162225530   -6.39214286628098   -0.42651381655525
S          -2.29476476715193   -5.65241115358793   -1.95699264542179
C          -2.53561048495576   -7.66982278431509    0.13414704079531
C          -2.37085107383116   -7.58031340604379    1.52990228006870
C          -2.01859589558457   -6.21062710885801    1.87449916947767
C          -1.76048574081031   -5.71533290102635    3.11836874678559
C          -1.81711224442483   -6.52457226401606    4.27308960958623
N          -1.85740396989607   -7.18268502142581    5.21097956236275
C          -1.40308547936835   -4.36695671936184    3.33284110354909
N          -1.10209882222417   -3.27597017034960    3.51503733274842
C          -2.56879502924813   -8.79650665876356    2.17625521654653
C          -2.87553489125440   -9.81100548090718    1.28239291844515
S          -2.93536570530578   -9.25072763611355   -0.37760289571024
C          -3.12678331466188  -11.17207606140862    1.58125985827585
C          -3.36292529238030  -12.19642365696251    0.68034249296830
C          -3.58355466936792  -13.40846102022372    1.32551637613441
C          -3.51395535320522  -13.30994143213288    2.72946574234202
S          -3.17542983342878  -11.72317607195687    3.24792948280157
C          -3.82524714945474  -14.57495517430688    3.28938397100857
C          -4.09072659064001  -15.46805176539080    2.23327921090730
C          -3.95798042148022  -14.76403940055358    0.97056678149732
C          -4.21832017293254  -15.26959416505104   -0.27032686924474
C          -4.71386701132885  -16.57822496465657   -0.44249972257858
N          -5.15901390938746  -17.62758871723965   -0.57528145387869
C          -4.07580506458718  -14.53360544165023   -1.46362757984737
N          -3.97904603346313  -13.97961710132619   -2.46311324722018
C          -4.48544350281955  -16.72501866918789    2.66836469587857
C          -4.51810883593820  -16.81954612182980    4.05472999211429
S          -4.02861270106254  -15.30965377229220    4.81560050113502
C          -5.03371695548148  -17.91573004984289    4.80218777595197
C          -5.72841129028589  -18.92113307281024    4.15617346040953
C          -6.49935283988053  -19.87850897248424    4.78952010379129
C          -6.35518499137778  -20.15405055050820    6.21396466700354
C          -5.65697041040049  -19.34257459940692    7.04377394963431
S          -4.89649807678838  -17.88568739562695    6.54185007181358
C          -7.12624667543828  -21.33194661697292    6.43886692365235
C          -7.77755249787430  -21.71109484766681    5.26043782993025
C          -8.59901502407235  -22.84189270798268    5.44658766030303
C          -8.54643664943190  -23.29000614944741    6.72958527267637
S          -7.51931297751029  -22.35557919467966    7.76026223409495
C          -7.45416012906715  -20.76506911318015    4.22121483634203
C          -8.09388771207484  -20.58770040747801    2.98584377447701
C          -8.07753995718518  -19.36334551885217    2.34998730160837
C          -8.57987808198061  -19.02442459810991    1.10287958907233
C          -8.46192508972857  -17.77574910507290    0.50865419763298
C          -8.76748811381967  -17.68217565637076   -0.93540761036719
O          -9.30674139332318  -18.51627336164961   -1.62654518798143
C          -8.25453185961912  -16.35789093013817   -1.36806461487697
C          -7.76764644845190  -15.67386363995523   -0.24237643865952
C          -7.22373821664241  -14.41304564354244   -0.40331453536797
C          -7.13209845998897  -13.83898103214239   -1.67389267663956
C          -7.61663898096718  -14.54359889010425   -2.78847656129010
C          -8.19157276205665  -15.81384798700537   -2.62853616262448
C          -7.56280506072394  -14.04262980837594   -4.10872080624210
N          -7.55671919353041  -13.67493991963916   -5.19677786206173
C          -6.46618684619584  -12.48923881099256   -1.70881402030027
O          -5.95282315816678  -12.03909582619327   -0.71545090646668
O          -6.45474157304934  -11.79305721524975   -2.83829750015534
C          -7.94312714591618  -16.51420364729391    0.95337648312850
C          -7.67764916933141  -16.02430331459475    2.21848876923646
C          -7.91527697214566  -16.59025746102420    3.48510658920373
N          -8.02415723101129  -16.89289946815916    4.59077292483803
C          -7.09877472384726  -14.76879795625353    2.49164145204428
N          -6.57405777729208  -13.81062519912145    2.85355067095556
H          -0.03866554050420   -0.56002655122635   -6.46410954337574
H          -3.58846571543054   -4.01946334342399   -6.93537915912169
H          -0.94214652822997   -2.22004752742737   -1.49998896343937
H          -1.44393308737162   -3.37275732867850    0.76575185813187
H          -2.49435942242465   -8.95800520044860    3.23673775997090
H          -3.39436781147458  -12.04376579675044   -0.38285638111787
H          -4.72393645677569  -17.53492818927519    2.00476446556689
H          -5.70039904043198  -18.92967737009639    3.07879763360452
H          -5.57613950265883  -19.52057823466807    8.10432658579177
H          -9.19091602793990  -23.30604182823787    4.67914913695937
H          -9.05962749800437  -24.13205176502473    7.15113702820482
H          -8.67679507187812  -21.40335626325308    2.57883945240330
H          -7.63097802180588  -18.55565283000984    2.89878038230477
H          -9.01923103499514  -19.78985315093357    0.47328882397444
H          -6.84715981307926  -13.82893299438738    0.42119392197297
H          -8.56869147777300  -16.35521472173226   -3.48300971977393
H          -6.82044311366963  -12.24536445743293   -3.61557246960590
