104
 SCF done       -211.227339554404          0.000829476023
C           1.74757113482825   -4.46290269457628   -4.12514701124878
C           0.91668580726049   -5.49633502757051   -4.47169224596862
C           1.28005784432396   -6.53666512061175   -5.35102796153204
N           1.53190271388469   -7.41586213577834   -6.04412456078424
C          -0.43102641696563   -5.57800806776167   -4.06419055436701
N          -1.54284719667775   -5.65645460027730   -3.78897223867034
C           3.02452691313237   -4.15979521043607   -4.76740613956267
C           3.32206075396976   -2.79971949579693   -4.56227201154242
C           4.44933638905506   -2.21710501577345   -5.10438854767886
C           5.30518949182602   -3.01172466839056   -5.85783747768873
C           5.02232665883825   -4.36886285033572   -6.05334812329781
C           3.87963803061883   -4.95082298276676   -5.51478803843311
Cl          6.09750515902159   -5.34010551142000   -6.97331292937234
Cl          6.71660142679649   -2.32254980215419   -6.55038151511216
C           2.27646545828998   -2.18652742491864   -3.71304198114042
O           2.17604010511834   -1.03219160841145   -3.37206859965062
C           1.39675936165330   -3.31794044405516   -3.31288355863541
C           0.51816727560585   -3.15599072532556   -2.28408032540082
C          -0.10843586159212   -4.13018036183200   -1.47708356154149
C          -1.24506134700760   -3.93428128837689   -0.70619959470909
C          -1.61462947949897   -5.07722896735206   -0.00815332802374
C          -0.71861163490771   -6.15118706937525   -0.20373529375516
S           0.55174725406917   -5.75469654567084   -1.26388596186228
C          -1.17803360301052   -7.26391370545407    0.53528586532354
C          -2.37578260152197   -6.90844582567319    1.18240490483355
C          -2.68104045989654   -5.51855583497304    0.87152076365002
C          -3.74616091920075   -4.79233088709135    1.31654675936733
C          -4.72414548683892   -5.34618160931526    2.16945129298160
N          -5.51702056360797   -5.79451182726352    2.86588824717251
C          -3.93484340375676   -3.43904503936624    0.96358105768047
N          -4.08868062420469   -2.33703378657495    0.68833816472660
C          -2.93291028407568   -7.95613769061793    1.90876644928841
C          -2.16487511214588   -9.10732992822502    1.82956585298020
S          -0.72998496489423   -8.88700995230313    0.84192679218209
C          -2.44891065049338  -10.36521854215070    2.41390237568152
C          -1.65546801399332  -11.49862206358666    2.42387240746728
C          -2.28004338185787  -12.56841643921189    3.06262249822646
C          -3.56889996768410  -12.24719794449444    3.53566855540665
S          -3.99653573928598  -10.62668268153899    3.21357036791792
C          -4.13288083138363  -13.39771995026106    4.13356395862666
C          -3.20373092453544  -14.45023510459677    4.03539796869335
C          -2.00948358497825  -13.96379819250405    3.36104285764639
C          -0.88088991476463  -14.67470369675263    3.06971546020919
C          -0.76306147112472  -16.05287871841664    3.34353153800649
N          -0.66830819703659  -17.17866883663645    3.54151271210940
C           0.24620374793444  -14.07759130749904    2.46748509321768
N           1.16915540424348  -13.58653969611538    1.99644783702035
C          -3.65289885706804  -15.63214084608372    4.60965963460117
C          -4.92638779462470  -15.50102002562731    5.14764450772158
S          -5.57115877428051  -13.88232770987168    4.92073606184994
C          -5.66226213708138  -16.49655919160791    5.85166659005996
C          -5.06985545559584  -17.68058485610651    6.23015788235470
C          -5.68580381320074  -18.68033780576949    6.97089457445328
C          -7.12426756608465  -18.64121194691715    7.24786934112824
C          -7.90448814839725  -17.56996703924105    6.97662188714132
S          -7.32773004683340  -16.12188703329351    6.25674139486230
C          -7.42689892627533  -19.90317235399778    7.83293667120344
C          -6.26184141893264  -20.66896865343095    7.93697747212615
C          -6.50251177909987  -21.92818007827159    8.52768695897757
C          -7.81432850481589  -22.08593527521293    8.84503719744868
S          -8.80452169441341  -20.72094471236636    8.45177596757929
C          -5.14975699221973  -19.90237720001748    7.44362903020589
C          -3.79134487409500  -20.28366226256690    7.44031402429301
C          -2.77130996168364  -19.37319861160979    7.38338054758871
C          -1.42246719513342  -19.68474061283779    7.14931163159589
C          -0.47639209028803  -18.72470352807728    6.87678102726393
C           0.92253855754757  -18.94354428862724    6.57387645623861
C           1.61362794941095  -20.12448149303995    6.67907313371285
C           2.98542860451486  -20.26421341526857    6.38487837047437
N           4.09821511382278  -20.44632758109958    6.16718496023468
C           1.07492316638578  -21.34996154129653    7.12008769941726
N           0.71337830038762  -22.37987684391587    7.47944684445247
C           1.49838409581472  -17.66505753701451    6.16617044174573
C           0.50238609247233  -16.65966601001333    6.30450921065919
C          -0.76206814682078  -17.28026890695601    6.72521280810548
O          -1.82766329225806  -16.69889170619108    6.85158199496035
C           0.74499914128842  -15.35117302476215    6.00278384485886
C           2.01449085943817  -14.98224427576363    5.50735450079027
C           3.01178516683132  -15.98638230089315    5.34323762207786
C           2.73746719661447  -17.33007785358155    5.68930256907368
C           4.26773438325466  -15.61270174705685    4.82437217098012
C           4.52540040841516  -14.31396350447669    4.47898832397989
C           3.54261243322769  -13.32690373971705    4.64177349466819
C           2.31495464924473  -13.65376602000102    5.14903304668597
H           4.65774549519791   -1.17051733457470   -4.94821128110974
H           3.69095436328711   -5.99908864755999   -5.68089599579410
H           0.32526670093289   -2.12499997625796   -2.00142781652526
H          -1.78418720444189   -3.00414116015687   -0.70195061127466
H          -3.84845181340985   -7.90582597014810    2.47044625741449
H          -0.67504385807084  -11.52650590927848    1.98260550508645
H          -3.08041954278139  -16.53873717406336    4.63700708320958
H          -4.04802764365361  -17.82790848363037    5.92399856160592
H          -8.95589214490919  -17.53939032953260    7.21513754282476
H          -5.75309817385860  -22.67727986706914    8.70658232573461
H          -8.28202448420994  -22.93763009160631    9.29889230146181
H          -3.56539490923715  -21.34211859471407    7.48768615598735
H          -3.00635456859317  -18.32909587679941    7.51007148057657
H          -1.14227788504333  -20.72954027729247    7.11822471347960
H          -0.02933158827456  -14.60693664205955    6.12945078761166
H           3.51558366048977  -18.06402848151924    5.55222202235414
H           5.02261229899885  -16.37546855189912    4.70200398295772
H           5.48931214074989  -14.03994711001021    4.07744201698462
H           3.76112303926983  -12.30778858851430    4.36133938867453
H           1.55376917510111  -12.89703252217399    5.27819746324184
