95
 SCF done       -194.733345854787          0.000973602412
C           1.60520735077298   -1.57771331785953    2.44160586430855
C           0.98115017347054   -1.33954602327070    1.24316639208802
C           1.43130722476998   -0.40132246431770    0.29128120313379
N           1.75882735998668    0.33357011352995   -0.52673047575454
C          -0.23279921693446   -1.94031649679086    0.85756852728173
N          -1.24141974782011   -2.37153673424246    0.51799875175385
C           2.70939685352021   -0.78982331356296    2.98693044963121
C           2.77703112187323   -1.00363411450674    4.37629832593635
C           3.70876794630451   -0.35736183532421    5.16220247412275
C           4.60208817806258    0.51134993059913    4.54606839030302
C           4.55149231794744    0.71480614357615    3.16184165433830
C           3.60340595375970    0.07001156071816    2.37359794693468
Cl          5.67444966328786    1.77441579603072    2.41424599949344
Cl          5.77609701430520    1.33336461960680    5.49029598852482
C           1.75131445943440   -1.99271203904910    4.77304590250525
O           1.48084266676965   -2.38332005270451    5.88397944565066
C           1.14987302014913   -2.45636653835513    3.49308513208688
C           0.37040920174693   -3.57963871905046    3.49193057364213
C           0.02191382260559   -4.40882019204683    2.41248035890877
S          -1.38894164502455   -5.42925690205893    2.52713179495132
C          -1.19788029732969   -6.05654438524570    0.91706473136153
C          -0.05178443670781   -5.52236074942055    0.34502148119265
C           0.64943299298411   -4.61112909956681    1.17784290821326
C           1.84540826166617   -4.16363936129903    0.57198466137493
C           2.00601236798898   -4.67270087264422   -0.68345532691073
C           3.12874473359837   -4.37787742774135   -1.58307305332791
O           4.05709982648942   -3.66772053614775   -1.28751395189962
O           2.98078846033361   -4.99481369451613   -2.75683967852473
C           4.00352552697621   -4.77540352739446   -3.71779701377540
S           0.72865296771488   -5.74225063364826   -1.18607044214759
C          -2.11320202315232   -6.97681321766279    0.35725946581398
C          -2.05823089864231   -7.55010195761643   -0.90469038943384
C          -3.11016971243732   -8.43582982583636   -1.11634526111816
C          -3.97686964610628   -8.53738240416182   -0.01129418503453
S          -3.49506544285295   -7.53838618551106    1.28530565108473
C          -4.99473374558330   -9.47272660371873   -0.32076791597939
C          -4.77256734824452   -9.96355149809032   -1.61967700152940
C          -3.58413894953743   -9.32737478430211   -2.16419639913455
C          -3.02688829093462   -9.53298606102095   -3.39167521697029
C          -1.85285833558537   -8.86870301848607   -3.80673101788062
N          -0.89692014295411   -8.33677450096951   -4.14902299385720
C          -3.58862625860853  -10.43544343586549   -4.31983512035232
N          -4.05619822756237  -11.16870312935071   -5.06714847472233
C          -5.70748826435313  -10.92040680377700   -2.01195767412872
C          -6.64826787360857  -11.16687103228101   -1.02650358333450
S          -6.35909404025913  -10.18670954643134    0.41134621578473
C          -7.73109334280345  -12.08776205184120   -1.01435377213817
C          -8.33362033389320  -12.79150952276856   -2.05820159625261
C          -7.98010140694252  -12.69676219963780   -3.50829175046760
C          -6.92473383824063  -13.73896004327091   -3.88909230461965
C          -9.34883247336487  -13.63390151954195   -1.60684963405961
C          -9.56764000654537  -13.59515170925039   -0.23914975079803
S          -8.48276870765310  -12.45836420257000    0.51026884349778
C         -10.51438806443475  -14.29673582974681    0.53500276165525
C         -11.24478290717210  -15.35405402214049    0.07430639443660
C         -12.23385629667452  -15.96990355934467    0.85573579655581
C         -13.06912966144838  -17.00813785471658    0.53612446705000
C         -13.80844209791100  -17.66272384568776    1.64342551440608
O         -13.92118567050818  -17.26432151015472    2.77976407431973
C         -14.33402013537547  -18.92468950011727    1.07546281533687
C         -14.99971984037753  -19.94460812808682    1.72032950987335
C         -15.35159508260825  -21.07327027120974    0.97800279454654
C         -15.01817580060898  -21.15000706145046   -0.38738042751279
C         -14.35211283417228  -20.10484110947648   -1.03152323513379
C         -14.01636662190233  -18.98170958460556   -0.29504707812875
C         -13.34271186314739  -17.73448529089817   -0.68183244626897
C         -13.20042376328647  -17.32104778353600   -1.98199814209606
C         -12.75046072391434  -16.05898353132054   -2.42033120110328
N         -12.41427095786995  -15.05955662128181   -2.87589344389851
C         -13.57429171092259  -18.09907287088988   -3.10047252605116
N         -13.84093811516267  -18.68111149074155   -4.05284534801970
C         -15.35910826993371  -22.31265203598148   -1.12210665630979
N         -15.62611244858373  -23.25135786789515   -1.72058054572805
C         -16.03277691077170  -22.14591845400041    1.60185407834453
N         -16.58455314754089  -23.00171846903475    2.12576839274731
H           3.74216161466583   -0.52373658701233    6.22725467709129
H           3.59537074518086    0.24098779252962    1.30926651859573
H           0.01710998437920   -3.89088138312392    4.47041791602469
H           2.58066226635473   -3.52591684957316    1.02588967998121
H           3.72503382537247   -5.35795027474407   -4.59165288480544
H           4.96770503085456   -5.10385163074875   -3.32467126455494
H           4.06698224644412   -3.71393850682504   -3.96503847018396
H          -1.28586511535939   -7.32688905574265   -1.61696167965617
H          -5.67868371795249  -11.43050819125914   -2.95436617492005
H          -7.62619680620345  -11.69355456507589   -3.74722337766910
H          -8.88250272806308  -12.88121671293620   -4.09372931807307
H          -6.04069919618847  -13.65138587401253   -3.26123733150200
H          -6.62661898582248  -13.60679371532327   -4.92543544670195
H          -7.32717478504440  -14.74169351232104   -3.76756970927417
H          -9.95108809785592  -14.22764702044953   -2.27170749948744
H         -10.66224217886374  -13.95817885942591    1.55270155337462
H         -11.04264065687176  -15.73248296945456   -0.91345889333089
H         -12.33114910101783  -15.62660000601301    1.88161119685062
H         -15.23803734794230  -19.87290206989189    2.77064054639252
H         -14.10826888464930  -20.20708719288671   -2.07681073638539
