91
 SCF done       -177.283282128484          0.000598989299
C          -1.93506635440306    1.60256207359805    6.09477895944057
C          -1.52633252486135    2.10460684361594    4.88665663053730
C          -1.91495355883742    3.36266029679042    4.38630568437007
N          -2.21427254202932    4.37189392166227    3.92865977935773
C          -0.58582976744932    1.44698598944194    4.06615713145621
N           0.22027466495807    0.96173729817338    3.40854478400662
C          -2.62493726195352    2.36377121808990    7.13350265038570
C          -2.38361503983327    1.74978589128005    8.37642380135597
C          -2.87539155329026    2.28149694314466    9.55087645647303
C          -3.63409655455742    3.44383129558225    9.48171409071646
C          -3.88840364427398    4.05135228101080    8.24727882173780
C          -3.38179626051080    3.52002594584208    7.06591832854121
Cl         -4.84136300044860    5.47798144606011    8.17827811644246
Cl         -4.26312962744542    4.13529051392426   10.92286339485296
C          -1.57990345789958    0.52219700774024    8.17370473027929
O          -1.14484733855576   -0.22894407877781    9.01623155974669
C          -1.47799013280405    0.37164947386779    6.70064241602681
C          -1.07900071632544   -0.82124617740908    6.17067215994541
C          -1.31942198056636   -1.33280024622839    4.87716851671547
S          -2.62692204994411   -0.71233241050418    3.89410183049964
C          -2.19406869947364   -1.74593202698786    2.60108107909969
C          -1.10449177401160   -2.51535476815032    2.86652548747433
C          -0.51865742574900   -3.48832678798327    1.89995423206059
C          -0.61456214447811   -2.32547847727926    4.19279029425412
C           0.51318725064669   -3.07629235955417    4.67923043609230
C           0.64031242380832   -3.61938420391439    5.90853380235484
C           1.75570605525447   -4.38965061600149    6.35779502036258
C           2.98013780479553   -4.41712350454658    5.77953314250482
C           4.07485887728940   -5.19206721929772    6.23683430747475
C           5.36388020321615   -5.17717872779586    5.73353733266949
C           6.20807825123888   -6.06045269935006    6.40599238240164
C           5.55118251159141   -6.76686967421510    7.43212907420755
S           3.90642778811370   -6.33264053313411    7.57188189165053
C           6.48063502189098   -7.63574533337636    8.04831018036799
C           7.72934437589014   -7.47538889554795    7.42406303083472
C           7.59559606528494   -6.48217818584285    6.36647341859669
C           8.57136064990540   -6.05106177946534    5.51460663970172
C           8.32118632324761   -5.09074476000304    4.51286096661568
N           8.11971361679469   -4.31309887439451    3.69418909410319
C           9.89113126000012   -6.54364635592712    5.57494338958433
N          10.96460364081038   -6.94492403367080    5.62173588541004
C           8.71887157937539   -8.29257483578046    7.96405379043470
C           8.23797719535551   -9.08996377281716    8.98964244765866
S           6.52533022338563   -8.80805203375114    9.29334266251289
C           8.95638474496356  -10.04970557850333    9.75588018589484
C           8.34776954563850  -10.88727647591410   10.65975930533898
C           9.00342667386455  -11.84766514802918   11.42515809379287
C          10.45591476282024  -12.02860890077683   11.33101172707497
C          11.25646633799709  -11.31830622315932   10.50830255720810
S          10.69273749135409  -10.09071678311844    9.44994974644453
C          10.75985592314409  -13.07403923623517   12.24429128294572
C           9.59033944003900  -13.53182551201990   12.85822336262524
C           9.86322371746171  -14.56500077293146   13.78457675458885
C          11.18891802441898  -14.85632126414758   13.84065336262752
S          12.16647481675485  -13.89877319609483   12.78210321172267
C           8.47522477209846  -12.77411760083994   12.34680148155405
C           7.10145870789860  -12.90487641892410   12.65179452793496
C           6.53288889592051  -13.86338487513872   13.42519809832937
C           5.14374709558464  -13.95824839571441   13.67517459475887
C           4.47808853962429  -14.92099905506294   14.40256932954054
C           3.06610241413007  -14.75092551779544   14.46321176179519
C           2.47073248298124  -15.80033392711395   15.22920277051250
C           3.34201690738003  -16.70916012549637   15.72166256327487
S           5.00211013744115  -16.33184923392303   15.27155860913831
C           3.04408827573660  -17.90869636886131   16.54391413182980
F           1.14271418326546  -15.87290171393328   15.43769334908401
C           2.64419986403874  -13.64459859279052   13.77822328597628
S           3.96606061804627  -12.81382756823583   13.05845174900819
H          -2.67373550402889    1.80701729088801   10.49817926195516
H          -3.59623987535220    4.00864437552484    6.12920059520378
H          -0.57679114957624   -1.47700388795220    6.87146487745250
H          -2.77751436013035   -1.72710354821499    1.70117859439998
H          -1.12305526213697   -3.53690921167988    0.99842817759601
H          -0.46274863826862   -4.48128938852788    2.34347092566760
H           0.48951301193616   -3.18074484510644    1.62400039261709
H           1.27311198682900   -3.27723882915295    3.93604008801695
H          -0.17998368748710   -3.53731185431074    6.60928484374638
H           1.59989110256288   -4.97670208522923    7.25464936416490
H           3.18927924258872   -3.79750016450177    4.91814624174451
H           5.66087849703654   -4.54362835206112    4.91736743820398
H           9.74107439382395   -8.32396565148716    7.63238625440526
H           7.27561857998696  -10.78367646309883   10.76676250015458
H          12.32174698664174  -11.47704180018637   10.45141794391700
H           9.13691525749455  -15.07246272444589   14.39208924010043
H          11.67194170576638  -15.59217778539891   14.45344588341040
H           6.43928592845163  -12.17515982516811   12.20172911252564
H           7.12951962449719  -14.63767710084891   13.88318234187551
H           1.97369781518234  -17.97123058855897   16.72660584567805
H           3.56682285726015  -17.85675943923632   17.49868770755122
H           3.37144392362750  -18.81307674430195   16.03129347367124
H           1.64736081762284  -13.27353796010877   13.65482322151121
