122
 SCF done       -243.054493367148          0.000898943905
C           3.90071136137852   -1.37693401921840   -0.27675144447549
C           3.29400016277986   -0.41023213432675    0.48280508192022
C           3.82408929592719    0.88523697361421    0.67479002960230
N           4.20437323327675    1.94827374974349    0.87840449516679
C           2.06038744702169   -0.52902270740152    1.15860268308842
N           1.06265089701442   -0.53198156353411    1.72936638816059
C           5.14261894264396   -1.20715037558073   -1.02666730978530
C           5.37023719809018   -2.36099046609327   -1.79745871312340
C           6.46598811786536   -2.47876381393233   -2.62757381518410
C           7.36858241640685   -1.42400632656235   -2.68267224843960
C           7.15494965468575   -0.27381306709073   -1.91260348080203
C           6.04371294964910   -0.15602784823416   -1.08476620827993
Cl          8.27805261713172    1.02107091415520   -1.98693800774189
Cl          8.74745917171899   -1.53357971869138   -3.69700577960485
C           4.28095562639469   -3.33390842298843   -1.57462706355599
O           4.10011157873696   -4.36485491028266   -2.18538406180932
C           3.42500411803318   -2.72895714236569   -0.52527808280126
C           2.34007028101000   -3.28498764549002    0.08739168066040
C           1.85449311945911   -4.62539226233409    0.04934500740344
C           2.77082238261305   -5.72708696370067   -0.28251839373992
C           2.43507233056918   -6.64505289051093   -1.27639637074061
C           3.31288805340407   -7.64987488894752   -1.62372272211104
C           4.53085838493224   -7.77427599336272   -0.95903746184048
C           4.84989147269460   -6.88307544365241    0.06138667106795
C           3.98624261424126   -5.85834347574303    0.38515487647897
C           5.50925457576881   -8.85247643421391   -1.28566105601417
O           6.23810474077932   -9.34341913304254   -0.46895236495460
O           5.53757468250472   -9.25115173271795   -2.57060320524113
C           0.53039260601167   -4.84990335517761    0.37067972135477
C          -0.37497516977833   -3.68979880429390    0.42686581811471
C          -0.41388030759296   -2.77469454638358   -0.62696435606223
C          -1.20735516913755   -1.65184473180044   -0.54329639332236
C          -1.96695741796680   -1.40017543314970    0.59829140837499
C          -1.93178101563300   -2.31454796256040    1.64835244492316
C          -1.15886283391334   -3.45446419042632    1.55466714622029
C          -2.77408379902147   -0.13821143832190    0.59641745884021
O          -2.79041046139169    0.59796732098168   -0.35388885696801
O          -3.50136274623178    0.14542884904752    1.68159731605564
C          -0.04987010982180   -6.13362117973011    0.65687928972748
C          -1.38571298876969   -6.37756075077492    0.41964437862087
C          -2.03469920720485   -7.57941522815705    0.68103017195792
C          -1.32467266480262   -8.71829136951289    1.26567093094323
C          -0.01637977335402   -8.69283489050753    1.61034909573498
S           1.00151291233914   -7.33565233851900    1.39402839216219
C          -2.28562491969624   -9.76051044202808    1.34862509352981
C          -3.51350848728408   -9.32049579898136    0.84004296418248
C          -4.50523185368679  -10.32295500988786    0.94125748584852
C          -4.01238798288173  -11.46388824572209    1.49103002253095
S          -2.33866773352457  -11.37783202193093    1.91748296812723
C          -3.37143248898108   -7.95294019998411    0.41230245592649
C          -4.35201261139838   -7.11815357935357   -0.16742857576508
C          -5.50571601877123   -7.56690216879618   -0.73355674582327
C          -6.51396931630596   -6.76794269036138   -1.34710059604346
C          -7.27634416569994   -7.40270268969039   -2.42797723130399
C          -6.60943789927488   -8.11691514412537   -3.42497784100616
C          -7.29222504356424   -8.56253017710502   -4.53855694162679
C          -8.64956536209806   -8.29474864122380   -4.67330515566245
C          -9.34021010261704   -7.67349047870750   -3.63774650660853
C          -8.66001867281300   -7.24206265685985   -2.51810985545611
C          -9.35282329305252   -8.61566141616855   -5.95967521237835
O          -9.32562967149177   -9.69690962348216   -6.47904722744722
O         -10.00071949360030   -7.57893277072084   -6.48978958277707
C          -6.82009840898992   -5.45722452043316   -1.00482075459280
C          -6.29079058586372   -4.84626356009268    0.22531745790659
C          -5.70678131227765   -3.57994604029910    0.18912050697077
C          -5.28795482189543   -2.96216083611812    1.34857552156955
C          -5.41973088575497   -3.61511490769994    2.57228330569607
C          -5.97914744128072   -4.89404400282838    2.60923693775359
C          -6.41092618762138   -5.50029012350237    1.45233632128468
C          -5.04274589768027   -2.99483719972849    3.85410389676335
O          -5.22519057081912   -3.48310204927267    4.93903070304713
O          -4.43983402008569   -1.78414711266342    3.73152073628136
C          -7.64591216436663   -4.68216062949360   -1.86802020527488
C          -8.35765731422933   -3.54903559611118   -1.57816126884150
C          -8.97751147824558   -2.68322847202234   -2.56121867734096
C          -9.30188737667384   -2.98769554856778   -3.86039205054453
C          -9.88844510730033   -2.06669209178350   -4.75750196894827
N         -10.35271025804939   -1.36471163193260   -5.53708799453755
C          -9.21724906539136   -4.25091548017781   -4.46870833906906
N          -9.26469090034751   -5.24584039893375   -5.04566935431071
C          -9.30339486946117   -1.42662674317669   -1.88955836369699
C          -9.10819892939708   -1.59317162599995   -0.50696931614308
C          -8.61732949846713   -2.96288880185228   -0.23989630156054
O          -8.54006269117052   -3.50694239182397    0.83873205516393
C          -9.36881803576174   -0.58101539790086    0.39213622983132
C          -9.81784685309414    0.63878232258506   -0.10105759640216
C         -10.00354096484839    0.81771600244794   -1.47729086676348
C          -9.75351990405841   -0.21182144404911   -2.37897472756011
Cl        -10.55270975572929    2.32976742362143   -2.07335561062383
Cl        -10.14355476806409    1.92704064629148    0.98240370266992
H           6.61656202235967   -3.37017782711339   -3.21559657740650
H           5.91300812623941    0.74564131195085   -0.50964380357338
H           1.76772175347947   -2.62706663725890    0.72770723061691
H           1.49289129298571   -6.54561137671612   -1.79538070353897
H           3.02816023252853   -8.35303764089348   -2.39540570751770
H           5.78996991075289   -7.00245927795620    0.57763162650046
H           4.24462819139236   -5.15542524693146    1.16361426582836
H           4.95712184817426   -8.72025403281714   -3.13222467015642
H           0.17618295143296   -2.96072317260657   -1.51247213480919
H          -1.24779374929089   -0.93650175328390   -1.35051014013593
H          -2.49028026038461   -2.15831963907383    2.55784816582102
H          -1.12886859739700   -4.15248182047872    2.37841590061941
H          -3.47128759883769   -0.52861900307211    2.37797293083428
H          -1.95250623308279   -5.57748497999416   -0.03790926162020
H           0.48652372810135   -9.54308511026444    2.04359802963578
H          -5.53305502390795  -10.22098773583969    0.64616023761925
H          -4.54054763799925  -12.37758957962599    1.68167249488718
H          -4.12851065324402   -6.06025384838537   -0.20357186404910
H          -5.64348321272841   -8.63489400749273   -0.82886484326175
H          -5.54227956422925   -8.26639340289008   -3.34677075809140
H          -6.77703109885217   -9.08311818049595   -5.33116789911033
H         -10.40669552061229   -7.52023086575307   -3.71506889384806
H          -9.19363536807186   -6.76324390282870   -1.70998799545728
H          -9.83320724918580   -6.74363384703682   -6.00302482222840
H          -5.60332135329446   -3.06511611731707   -0.75613348651612
H          -4.89842257828775   -1.95885720748223    1.30314730852155
H          -6.09011570301805   -5.38026771224855    3.56631490473086
H          -6.88095902178038   -6.47092219542947    1.49211044518648
H          -4.30220387989658   -1.41413838386682    4.61885012670884
H          -7.66498617352126   -5.00712805644270   -2.90291783912686
H          -9.22307444708893   -0.73357300930856    1.44974056970672
H          -9.90825922961607   -0.03650398202892   -3.43085942334307
