106
 SCF done       -188.033655400776          0.000940604739
C           1.52679381995207    0.08912968924880    1.74750713900019
C           0.29552347374328    0.29566052336617    1.21455533142387
C          -0.44588730858933   -0.89704254928213    1.04238036269351
C          -1.83106233808468   -0.93280136068507    0.57561045083034
C          -2.19097454482250   -0.19171397407926   -0.54858673255245
C          -3.49015012003839   -0.26211995710973   -1.02549704756869
C          -4.44154835011326   -1.03552881287173   -0.35884069473082
C          -4.08717339366455   -1.75019776619221    0.77405465448480
C          -2.77454695365179   -1.69769938598527    1.24050478358083
O          -4.93581656678589   -2.53376705896979    1.49281725389968
C          -6.26496860914126   -2.66393426588477    1.05372553789831
O          -3.94497874637998    0.38498759422775   -2.13329339403924
C          -3.00449686094367    1.04257509189150   -2.94902279679728
C           0.26525814605435   -2.01263369833095    1.44721867961442
S           1.83310768572180   -1.56688506474572    2.06612570387428
C          -0.14386055881570   -3.37304464930215    1.29551686769511
C          -0.89280780459804   -3.91443306517568    0.25924897876074
C          -1.13307130584611   -5.28553742859199    0.56082994511237
C          -0.45133442152580   -5.60752053563104    1.79515758641238
O          -0.31573210891088   -6.62945191269064    2.42592671315590
N           0.13597634329591   -4.37773614223745    2.18245588408796
C           0.85787368665941   -4.25821615588171    3.41834652000665
C          -1.85896062089412   -5.84128799347112   -0.47589259221285
N          -2.05993272784310   -4.86064041652616   -1.41897475106844
C          -1.47755756274462   -3.63310557923259   -1.02675943476218
O          -1.50897698363985   -2.64459471084781   -1.73195384501407
C          -2.94374079731516   -4.91290611291843   -2.55256998792618
C          -2.31683618605754   -7.19573522186709   -0.49689200913979
C          -2.76736254199604   -7.88020157578389    0.61888498924609
C          -3.02038167607912   -9.22777795476584    0.24223606157513
C          -2.74764926241238   -9.36233440345863   -1.16971144698721
O          -2.84253945852746  -10.28279399885487   -1.94955385537537
N          -2.32403090807615   -8.06690402698631   -1.55935645653259
C          -1.72721519305493   -7.86388867340388   -2.85236670646379
C          -3.48266717705057   -9.91118464179142    1.35381723875450
N          -3.56396699729421   -9.02026822311006    2.39481918141692
C          -3.12232217886657   -7.72678541964332    2.01145379016283
O          -3.11845484298281   -6.78629264345067    2.77116584349947
C          -3.77950787134429   -9.32657862310000    3.78356870458520
C          -3.73921798326053  -11.31771152249522    1.36820595949141
C          -2.96709109181774  -12.24922680667819    0.69918936861793
C          -3.54551184474263  -13.53545686069302    0.88603287499383
C          -4.73635159043483  -13.37060901835562    1.67789276412586
O          -5.58958575226091  -14.14869546456349    2.06372451898550
N          -4.77984473438491  -11.99067024038726    1.96622157685982
C          -5.93597886011471  -11.41298428140925    2.59788796043751
C          -2.73551317693234  -14.47256358232558    0.24736237597021
N          -1.67655066227220  -13.79884314285217   -0.30262955201099
C          -1.74023442050078  -12.40635538484729   -0.04862634077469
O          -0.88200749907988  -11.63304813115798   -0.40370289429051
C          -0.59438913776485  -14.34304486607818   -1.07258366034096
C          -2.96318929534027  -15.87360656429421    0.19421559204396
C          -4.07088866849127  -16.50980085181819    0.70941516194932
C          -4.05482007711051  -17.91040519983469    0.54257237022065
C          -5.11463753011615  -18.80741226284767    1.00464345900795
C          -5.92716405397035  -18.43369757901650    2.06229057617113
C          -6.93622486491786  -19.28796710339704    2.51089478761930
C          -7.12332344680261  -20.51424894397974    1.89464660022871
C          -6.30626564074942  -20.89075873570728    0.82678825339712
C          -5.30632997940022  -20.04347870104570    0.38093592092965
O          -6.58244086112898  -22.11694375773845    0.29757737032165
C          -5.79714612250174  -22.57951131597207   -0.77306751298696
O          -7.67409717100827  -18.82917968851551    3.55530080436159
C          -8.72204065990799  -19.63148453065866    4.04208884183296
C          -2.91395492891456  -18.32198034655211   -0.10279440948233
S          -1.86792963031206  -17.03703490034995   -0.51251267575363
H           2.28087294356068    0.81458368882698    1.98126596818142
H          -0.09155879368767    1.26782105691900    0.96811288007655
H          -1.43373935329175    0.37680401929355   -1.06094788971259
H          -5.43830007223504   -1.05671951151545   -0.76746580100182
H          -2.52096468753896   -2.26487220055053    2.12140710042967
H          -6.74107435309041   -3.34447139926762    1.75789034401072
H          -6.31604300235363   -3.09103290860324    0.04679883610614
H          -6.78957691304774   -1.70287988766153    1.06619341985656
H          -3.55883608164078    1.38563746454603   -3.82152631385052
H          -2.21014115446272    0.35961721269184   -3.26378065942021
H          -2.56485727447703    1.90685709986629   -2.44000348874399
H           0.48296587356682   -3.42112036805079    4.00876166807773
H           1.92734259194477   -4.12381753895955    3.24110042343659
H           0.70184177831571   -5.19017769243271    3.96241746776428
H          -3.73190828557367   -5.64441133656530   -2.38141066872636
H          -2.40342975707759   -5.15570939910925   -3.47029077489589
H          -3.38055971130881   -3.91983155470799   -2.67323738568782
H          -1.31972858799872   -8.82300031659836   -3.17587106577144
H          -0.92706343067163   -7.12839030922310   -2.78819237622228
H          -2.46935637086626   -7.54579526361889   -3.58824079080563
H          -3.45803870179581  -10.34404657344485    4.00075268714832
H          -4.82814752579376   -9.19855077814355    4.06196085774676
H          -3.18587772042032   -8.62105415139748    4.36689217197332
H          -5.80346149723213  -11.33903377075402    3.67944459439179
H          -6.77895614860004  -12.07915286343978    2.40667471605079
H          -6.14177993143404  -10.42822340248566    2.18102052198798
H          -0.96156676599542  -14.85627233469409   -1.96289732506269
H           0.00819737167495  -15.03428404728701   -0.47961645899087
H           0.02313213814745  -13.49554625228472   -1.37362757634160
H          -4.87253661010202  -15.96818269926067    1.17826866369257
H          -5.79863874956652  -17.49009646570492    2.56518815888975
H          -7.88693407757889  -21.20868182352906    2.20225692208049
H          -4.68482324798107  -20.31224106769773   -0.45674172470979
H          -6.18716063763381  -23.56574126470379   -1.02008531213057
H          -4.74326121488627  -22.66917259498285   -0.48939539332323
H          -5.88413868585187  -21.92753208734048   -1.64833264981753
H          -9.17162434406298  -19.06605537489580    4.85672301110276
H          -8.35179264626975  -20.58752345401032    4.42603440321528
H          -9.47645599143355  -19.81793777613352    3.27115527246969
H          -2.61136086421764  -19.32233118551841   -0.34191297620088
