117
 SCF done       -214.870420480353          0.000485204836
C           0.98089786205757   -1.58295801523414   -2.22885808006815
C           1.32387749533265   -2.74980646435047   -2.86856959060870
C           1.57028563164797   -2.84840785237578   -4.25186075385521
N           1.74479032509074   -2.99970181616745   -5.37676981324717
C           1.54354854759129   -3.97469674043376   -2.20958686815836
N           1.76700821833979   -4.99052088458728   -1.72277029378204
C           1.03873922482330   -0.25325672968216   -2.83972675430873
C           1.08886786672804    0.71105445850033   -1.81762990708242
C           1.18782624680969    2.05784755712028   -2.09669031193184
C           1.22381199849446    2.45400569026015   -3.42884185459629
C           1.16021273348846    1.50184962473161   -4.45048562372450
C           1.07303943797160    0.14288263489941   -4.16499885153249
Cl          1.18799598428795    2.00693580310800   -6.09236439182635
Cl          1.34344108577100    4.12334270592882   -3.81705648785463
C           0.99779454090628    0.03572617342426   -0.50217778249188
O           1.05339154088676    0.54288070633321    0.59513537498713
C           0.77049005232218   -1.39513595933694   -0.81659447022928
C           0.35864407758235   -2.23126835510601    0.19092885712875
C          -0.29546955760425   -3.46680713250980    0.11560452323415
S          -0.41042840527333   -4.45249167313666    1.57166311937352
C          -1.27821349462761   -5.64545442226795    0.71278532739419
C          -1.50795243097951   -5.28664268262832   -0.62624316623921
C          -0.95772783776280   -4.06953022132240   -0.95771209643368
C          -2.25273667094999   -6.38005274906520   -1.35350364778746
C          -3.61611188663368   -5.90018645168013   -1.85885687365825
C          -1.40788996642227   -6.93527884001402   -2.50418385908589
C          -2.40373318962327   -7.39240009154342   -0.24320267213091
C          -1.82905743671781   -6.92021227926128    0.94228080137526
S          -1.98404493367036   -8.04149299174800    2.23220688965490
C          -2.81867725996951   -9.16500951049106    1.17497643670877
C          -2.95683157178287   -8.65393668106432   -0.11160866712049
C          -3.23993982075964  -10.41185911701989    1.69711000356753
C          -3.81330701336025  -11.39692818736254    0.95811582427398
C          -4.23486205759339  -12.65473885126518    1.44859341617505
S          -4.85084955619802  -13.82609130163936    0.29242652865671
C          -5.09825352361859  -14.95797520013723    1.55295299774597
C          -4.73287864625554  -14.45502912318854    2.80460531625676
C          -4.24440914053740  -13.15952494737618    2.74357674590537
C          -4.97708459472283  -15.48666074711781    3.88311742407734
C          -3.67480525725293  -15.87523168574709    4.58815520209737
C          -6.01532748062245  -14.99491789361901    4.89565103365289
C          -5.51682220123144  -16.63165045401582    3.05560224615813
C          -5.56875740400843  -16.27826127022199    1.70456202207042
S          -6.16126783322267  -17.54490781550017    0.71679016891757
C          -6.35154776895439  -18.57375184926574    2.12888352824755
C          -5.96069311304284  -17.92308345030266    3.29309068621236
C          -6.85126077158244  -19.88181747284736    1.93065383237421
C          -7.10847753634056  -20.79111298769281    2.90662102711434
C          -7.60762418529851  -22.09400649152361    2.66579463174851
S          -7.98984688727282  -23.12758262518607    4.03170441420122
C          -8.49410350554345  -24.37578528717069    2.96582665690160
C          -8.36311603457268  -24.00865667845291    1.62193779693220
C          -7.86687491992284  -22.72789912033508    1.45522527593416
C          -8.81138361219994  -25.12806486492375    0.71313050258494
C          -9.99358306487754  -24.70094813058421   -0.16095176915619
C          -7.65492861340346  -25.63866641093886   -0.15164603295192
C          -9.22648290806196  -26.16032539135702    1.73443909650813
C          -9.01966684762362  -25.68037004229603    3.03822755567991
S          -9.48059425891032  -26.81448884542566    4.23320004697567
C          -9.96685629716143  -27.95558366800203    2.98227750613636
C          -9.75515861200369  -27.43249082429845    1.70459042378939
C         -10.50060597426139  -29.20261728330452    3.34484099778916
C         -10.92546001127521  -30.14844272921274    2.45051483845701
C         -11.46864042227284  -31.37442739336540    2.85708386815452
C         -11.92172512524906  -32.34775156971293    1.99592093013074
C         -12.50012679041335  -33.62230263344301    2.35616683424432
C         -12.71459672088034  -34.11504432670800    3.61951444726357
C         -13.28990608765724  -35.37346078906600    3.89145807569561
N         -13.74950579574400  -36.38369033924845    4.18588677955642
C         -12.40192138401961  -33.45394356269367    4.82486263253046
N         -12.18296411348682  -32.98832821249646    5.85209207247001
C         -12.83486167014384  -34.32271590815034    1.11524292560201
C         -12.47828338019975  -33.51034536730723    0.02611940202174
C         -11.89425828987016  -32.24412131221517    0.52263485367572
O         -11.48596756945930  -31.32989685531475   -0.16590144270302
C         -12.67868983207797  -33.90948056261559   -1.27869129933018
C         -13.25137014105581  -35.15474593903269   -1.50572110101619
C         -13.60923664822377  -35.97109355857738   -0.42886323153566
C         -13.40475746369772  -35.56384078917826    0.88548041130867
Cl        -14.31648095240316  -37.50958265537655   -0.72213512094787
Cl        -13.51919917074828  -35.68912180629182   -3.11666467238760
H           1.23606278542010    2.78363154835432   -1.30046336843097
H           1.02437709060260   -0.56390074810983   -4.97737732273068
H           0.50180518358892   -1.82830577650136    1.18920120599891
H          -1.05682093596220   -3.59390780089396   -1.91667562108791
H          -3.48440158694054   -5.11226936780982   -2.59609304299741
H          -4.21145749707208   -5.51214242237438   -1.03519927845139
H          -4.15391667884285   -6.72465983621533   -2.32007516768444
H          -1.28666111897887   -6.17968758288770   -3.27619889355582
H          -1.89140132664637   -7.80700382342751   -2.93786110839667
H          -0.42173015076202   -7.21925944353887   -2.14510258026790
H          -3.44609256082523   -9.19076120687802   -0.90297841631110
H          -3.06631457126771  -10.56741007305757    2.75225759073670
H          -3.95854252222125  -11.24199399883094   -0.10180092363722
H          -3.90983559427923  -12.59001435135417    3.59102023144055
H          -3.26497096811459  -15.01720659505335    5.11512495348908
H          -2.94148555847136  -16.22258193863973    3.86380893917952
H          -3.86103426141576  -16.67112249601172    5.30492137060678
H          -5.63755469579970  -14.12367003721907    5.42490146942758
H          -6.23242760100097  -15.77771209339307    5.61813964953586
H          -6.93836663489764  -14.72214421082449    4.38892592036364
H          -6.00025962737257  -18.38980626491747    4.26009047195756
H          -7.04276570151801  -20.14960083929348    0.90099108527367
H          -6.94196052337863  -20.52820958311216    3.94143969802381
H          -7.69155298226271  -22.26196556411036    0.50343249167474
H          -9.69054966473544  -23.90414784297437   -0.83553915473059
H         -10.81219955371906  -24.34142996185825    0.45844267491918
H         -10.34571195518510  -25.54434055819915   -0.74917787829396
H          -7.32140966328067  -24.85664129239787   -0.82914073335246
H          -7.97771232988823  -26.49627289273533   -0.73618770475832
H          -6.81750051242741  -25.93843736605407    0.47445072900949
H          -9.98942083907179  -27.98088848276599    0.81109453964936
H         -10.58106359771696  -29.41118973244868    4.40479278189160
H         -10.85366861976019  -29.95883440699064    1.39161143833831
H         -11.53499564143344  -31.55188894729280    3.92259863042120
H         -12.39759146589523  -33.26869138716373   -2.09942976884805
H         -13.69408533737881  -36.22192510499609    1.68806026973410
