84
 SCF done       -184.532522558251          0.000817743171
C           3.20290382440181   -9.59999908351248   -3.98143777007446
C           3.76287705244731  -10.84236247172932   -3.86899826622509
C           4.43008624581441  -11.50904603546801   -4.92198297164752
N           4.97438511068826  -12.10807310954748   -5.73479664920521
C           3.79464779560872  -11.63173602288063   -2.70153928716858
N           3.90298519789282  -12.34577251688805   -1.80891487407456
C           3.24158688863999   -8.74888281836678   -5.16677806838622
C           2.66732836307123   -7.50066574404252   -4.86005707157644
C           2.58343041451234   -6.48757634385411   -5.79378588180184
C           3.07666039277436   -6.72453414462583   -7.07090065585936
C           3.64573018337888   -7.96608884471189   -7.38756685570427
C           3.73368271865367   -8.98132080684489   -6.44183878015927
Cl          4.24908839691593   -8.24641497433513   -8.96830543915356
Cl          2.98794551786210   -5.49444559716914   -8.26128175573538
C           2.21519618167716   -7.49406751031405   -3.45542831827366
O           1.75708222132010   -6.56472952838820   -2.83165367687887
C           2.49075438945788   -8.86592431691176   -2.94794392653722
C           2.14054798603465   -9.28824655407696   -1.70707344188417
C           1.35844449606689   -8.52349815170642   -0.79427337640711
C           0.14200354777826   -7.71129480275600   -1.10313653731580
N          -0.34251364635448   -7.10000057974825   -0.08142577346195
C           0.48511643345442   -7.40058723716140    0.97443292325348
C           1.52093687501287   -8.34772607799837    0.55015549941440
C           2.39433759110269   -8.63227445534826    1.67618652693059
S           3.58215801447069   -9.88820993318107    1.58026717063118
C           1.93716654166081   -7.86857951882442    2.72806543226301
C           0.72275035165924   -7.09973378923568    2.28037425167104
N           0.22617239297583   -6.35968950062289    3.29948863227922
C           0.99192006847218   -6.58964779320854    4.32646101152712
C           2.11250783185674   -7.49415646004026    4.08368093650165
C           3.07784817355550   -7.80110244190646    5.03221704115587
C           3.00506955012453   -7.42749918344249    6.43867019782466
N           4.01020624639142   -7.81408500697819    7.17524050251958
C           4.87050492681439   -8.44573168577755    6.34477353454435
C           4.32121838777277   -8.47493591853762    4.94494819812957
C           5.21483946735717   -9.11655344315658    4.12125032458194
S           5.34955862708008   -9.18339117611025    2.39399502927596
C           6.30407007425470   -9.55305911136952    4.98103360499196
C           6.09437584895243   -9.05143270427443    6.33550176270858
N           7.13444257298176   -9.44613610153067    7.14671629948068
C           7.91200109598286  -10.16721147583917    6.41284898263068
C           7.42634215026166  -10.32776892719092    5.02133378277135
C           7.89651618977892  -11.17602658318325    3.97350203784144
C           9.23214922816649  -11.29460632597056    3.38383593445551
N           9.27421576559365  -12.03794972261450    2.31631610037232
C           8.00533400231101  -12.49503575365821    2.12324827863624
C           7.12161760114613  -12.00567661422617    3.20447000609641
C           5.78375304924960  -12.50971097143228    3.03649373351137
S           4.47349094095920  -12.28796093958991    4.00574043618117
C           5.84709188244488  -13.21882386366175    1.78567040675960
C           7.21809700839189  -13.16667976473581    1.22785172181332
N           7.23305086422496  -13.69800932289790   -0.02718432339323
C           6.00041437438260  -14.01570711726019   -0.29602048520355
C           5.05878444368612  -13.75300920578140    0.79926067894541
C           3.64400959808166  -13.92711869701993    0.80430437799278
C           2.95459495970575  -14.37623456489039    1.88283179750632
C           1.51265331631762  -14.40310236009639    2.05013276065227
C           0.61999262952993  -13.61672763178152    1.37463473263875
C          -0.77625654039658  -13.64389106747621    1.58379677014236
N          -1.91756707266325  -13.63899726720332    1.69863772946384
C           0.98533502175672  -12.63515021076147    0.43226024246154
N           1.20466984999236  -11.78537477356144   -0.30811395807528
C           1.21127309653393  -15.29567365628383    3.16044778124687
C           2.41897438311236  -15.71894911673170    3.74487646740434
C           3.56736499550925  -15.15507656926179    3.00377175023754
O           4.73700671655055  -15.37267399405807    3.20900401418228
C           2.43897143875133  -16.56363264835782    4.83632523547126
C           1.22631414244829  -16.99825989742268    5.35696662612650
C           0.01894201296831  -16.58739746234176    4.77515399353404
C           0.00262624840677  -15.73439523150337    3.67782867907736
Cl         -1.46946597998576  -17.14606881567828    5.41904743768898
Cl          1.20831966657976  -18.04564462196295    6.71441058835983
H           2.14327929177680   -5.53738880569646   -5.53507461324902
H           4.17836055434405   -9.92185152809283   -6.72294754475121
H           2.45545937026409  -10.26047791465134   -1.34951008033232
H          -0.34321961164993   -7.67368563602918   -2.06007661689630
H           0.78195193440975   -6.10655177283406    5.26458363334449
H           2.19838354127302   -6.87885728324936    6.89259386307055
H           8.80832100136965  -10.61134684743150    6.80623067939951
H          10.11844901020787  -10.81238759360369    3.75759116829752
H           5.73618621216129  -14.45757945396051   -1.24040152724100
H           3.13301559278218  -13.66057495802234   -0.11265786925366
H           3.37479149711848  -16.87482291485451    5.27314584400741
H          -0.94289872826618  -15.44249862026640    3.25020924413717
