105
 SCF done       -214.917952633609          0.000896346949
C           1.36001355312543   -1.92733866300144   -0.56453185593140
C           2.04603725060303   -2.84131081701151    0.19131448952412
C           2.67062278032311   -2.54151682749783    1.41769565922713
N           3.16919252016659   -2.36317305781248    2.43651312450830
C           2.24562290058133   -4.18123438117800   -0.19700981392410
N           2.45514067359210   -5.27495700649327   -0.47584984918707
C           1.34105358774026   -0.48465708274565   -0.33785174508709
C           0.93438238679567    0.15538699490898   -1.52270233131938
C           0.84775354039909    1.52956636320793   -1.60911767718305
C           1.16123498763276    2.28221008348071   -0.48336965198355
C           1.55326281314691    1.65141612314866    0.70192806756894
C           1.65178566681080    0.26645525287472    0.78240698937609
Cl          1.91859766986479    2.59471628453937    2.09002236480743
Cl          1.05958976117429    3.99589205033817   -0.55013241404731
C           0.62004207359293   -0.86515086918690   -2.55021007268418
O           0.29850553741084   -0.68142329838895   -3.70022465180690
C           0.72860757557543   -2.16888917533037   -1.84016680674420
C           0.17316317314061   -3.27964686570825   -2.40107077523437
C          -0.23196004018491   -4.50379532163584   -1.80425743308187
C          -0.44205292427414   -5.63924102025298   -2.62612711184136
C          -0.85829015089939   -6.90292365092250   -2.10242932218300
N          -1.10950299503304   -7.92061569989697   -2.95087890463871
C          -0.85849732579779   -7.78291554455015   -4.22001317601880
C          -0.34418196082763   -6.54769179984555   -4.73204249842062
N          -0.19005119553756   -5.51908056417997   -3.94655587755193
C          -0.02067088540478   -6.37057803837586   -6.17516380481778
C          -1.16151982077826   -8.93380279563119   -5.11797850007144
C          -1.05290210486028   -7.09809047228058   -0.71743596473331
C          -0.89616202694822   -5.96417550617281    0.09969456363845
C          -0.51558894912261   -4.67759677708652   -0.43405879795021
N          -0.47362162996831   -3.74166231519940    0.51769077890534
S          -0.81079467035962   -4.42562410627283    1.93457130918243
N          -1.04540144615561   -5.92019888049419    1.42780094625575
C          -1.39382852242225   -8.37349587285860   -0.14120733490229
C          -2.32060379765756   -8.46226022937738    0.92028222857259
C          -2.54279030162482   -9.68430481843608    1.63337089641460
N          -3.22500944533753   -9.62789605901797    2.79569950565289
C          -3.82218527782060   -8.53720508102326    3.16342500075412
C          -3.83984356905084   -7.40284443205888    2.28255398036969
N          -3.06638252842651   -7.38600941061503    1.24167398217463
C          -4.71397489924928   -6.22235779304027    2.53512568099226
C          -4.49896306307842   -8.51372953769009    4.49112578610733
C          -1.97494161750493  -10.90362001147132    1.20902975776276
C          -1.16142286413221  -10.84366692978162    0.06468912181842
C          -0.83751846671899   -9.58736445355328   -0.57989641644246
N           0.03501992998910   -9.75751313222406   -1.57711053045938
S           0.34075310560152  -11.32128884595229   -1.73460424228552
N          -0.57218032458903  -11.87765411042132   -0.54341377130918
C          -2.11828106817402  -12.10372923719824    1.99785958924359
C          -1.01494712124350  -12.94366106691482    2.27565254655570
C          -1.14953252272399  -14.08808553784482    3.11926236666841
N          -0.08836079094235  -14.89802784698017    3.31643908719280
C           1.05775724853374  -14.61694128952009    2.76486576325628
C           1.21501228174418  -13.41692927435184    1.99662578030820
N           0.20209275153997  -12.62801752990208    1.78555076962988
C           2.53855418621461  -13.01344955839970    1.44163929079547
C           2.18539789616913  -15.55841137547048    3.00470423728228
C          -2.36849337694999  -14.43166018857955    3.75618426987352
C          -3.44534756271355  -13.54979385655728    3.54179084870470
C          -3.32803999056016  -12.43200028885386    2.63178506180585
N          -4.48308574238041  -11.76382589520318    2.52264040723423
S          -5.55055260672646  -12.41302251884114    3.51710849890591
N          -4.64123568979356  -13.58203045698932    4.13088142947060
C          -2.37922990639086  -15.56234229624664    4.61843533103963
C          -3.44063713544293  -16.31260467500776    5.02454110935873
C          -3.41596342410261  -17.26331560784115    6.12414389883320
C          -2.31535922531257  -17.76586597513638    6.76485205862787
C          -2.37987191438414  -18.68696431435620    7.83273844285146
N          -2.36320301492942  -19.43251990208805    8.70527410137461
C          -0.96927705761605  -17.49316620975020    6.43493337818125
N           0.15245398222456  -17.35107686172045    6.23528770542250
C          -4.80360005312939  -17.61478385786063    6.41982528571989
C          -5.63354304232898  -17.06345690808983    5.42832029256316
C          -4.80618771398581  -16.32409413751180    4.44545955021073
O          -5.15914678801863  -15.93242354318185    3.35674286251883
C          -7.00157216123150  -17.23634705562718    5.44892801330009
C          -7.55962602355653  -17.95734976419793    6.49765443963186
C          -6.74213806845719  -18.50104711806432    7.49400201360764
C          -5.36158045038261  -18.34009259919624    7.46014999393702
Cl         -7.44621178070947  -19.38339014708709    8.78929580233318
Cl         -9.26168503296162  -18.17429269494735    6.57177645354755
H           0.54214378138015    2.00667741269489   -2.52683018747492
H           1.95245882006833   -0.19010572876807    1.71138023035740
H          -0.05912912440308   -3.19976580134232   -3.45859389437547
H          -0.90643913214405   -6.53376147282840   -6.78741425708355
H           0.73606912432300   -7.09097361932239   -6.48161778143473
H           0.35021896174035   -5.36333153355019   -6.34076738647327
H          -1.86750440494631   -8.64054484961840   -5.89338060307800
H          -1.58404635941461   -9.74377729161711   -4.53119346235880
H          -0.25054863522100   -9.27875794767983   -5.60460316523684
H          -4.43775792470137   -5.74274417146680    3.47307349662022
H          -5.75588371397853   -6.52983537248253    2.60766907544310
H          -4.60285799745186   -5.51019636574103    1.72268072764837
H          -4.13006433993166   -7.68309375487664    5.09039097638681
H          -4.30908290983981   -9.44810764396646    5.01095488492202
H          -5.57309565806587   -8.38713759874876    4.36340669456806
H           2.89842856116159  -13.76747310166662    0.74329397368674
H           2.43962922354217  -12.06240381619335    0.92679489751288
H           3.27297488857148  -12.91620016270502    2.23966005089383
H           3.02868697523414  -15.03785510908311    3.45518292056148
H           2.52178975058458  -15.98911480982171    2.06247894186312
H           1.85368647085415  -16.35187776273009    3.66851656749945
H          -1.39429546771153  -15.81851886637932    4.98902950338644
H          -7.62159140227225  -16.81292016801613    4.67484699111136
H          -4.76292725218073  -18.77395277240315    8.24422722332399
