144
 SCF done       -223.433445574585          0.000574025997
C          -7.75369706090067  -11.18798083581018   -6.58745506444111
C          -7.72007721188522  -10.39705266819727   -5.50715054418437
C          -8.81578180601532   -9.69850587791825   -4.89610196158529
C          -8.48062574487097   -8.97587073084414   -3.80628656144654
C          -7.10046981752847   -9.03897393411124   -3.45864685544607
S          -6.23896641091112  -10.06358139313182   -4.59534649676670
C          -6.47841494841617   -8.42434842663141   -2.40397688475361
C          -7.06005644191520   -7.58637022450193   -1.41537485735890
C          -6.18367902305998   -7.14256758443362   -0.48446765330878
C          -4.83865381814520   -7.59424491155114   -0.65638874556037
S          -4.75909973290553   -8.60499991235539   -2.09762510267014
C          -3.82491023522304   -7.30008491085647    0.20269627833839
C          -2.44901470688558   -7.70057606482217    0.19599582615876
C          -1.82551673158858   -8.37534124325428   -0.86303226923453
C          -0.50249442324303   -8.74525911118308   -0.78792157004902
C           0.26020690105862   -8.47081851912527    0.34945491395793
C          -0.35442851889865   -7.80180647329397    1.41121838504587
C          -1.66956919967530   -7.41157507919114    1.32872499475489
C           1.64980134219323   -8.92471433370263    0.46461869982347
C           2.00771329713621   -9.51841087586454    1.76454382964094
C           3.18509337693508   -9.15766300592318    2.41695511297117
C           3.50077524261097   -9.70309820775167    3.64638939990021
C           2.64747404449693  -10.61556409727766    4.24503399281807
C           1.46904858754038  -10.97167020320017    3.61052951439454
C           1.14705000270791  -10.42292343029651    2.38358261254054
C           2.54470965329215   -8.81726030249135   -0.54638838237897
C           3.85732712454416   -9.48221588864805   -0.49801950039002
C           3.96981682378238  -10.81464432121003   -0.10465946903690
C           5.20285012448015  -11.43707345931240   -0.08101853813423
C           6.34293274517054  -10.74178112580628   -0.44982093290663
C           6.24051294162714   -9.42126190252598   -0.85454723647603
C           5.00763391147524   -8.79749878976677   -0.88576470838984
C           2.29006466945756   -8.01953479220140   -1.75327781455268
C           1.72136721387296   -6.74855619883761   -1.67268866309273
C           1.54415320365352   -5.98257152993783   -2.80537731430515
C           1.92137175582583   -6.46016869602990   -4.05990215652226
C           2.48537557107343   -7.73256764092932   -4.14006494743642
C           2.67660866810904   -8.49430618004352   -3.00642664592052
C           1.74595408116800   -5.64144485351321   -5.26529836551324
C           2.00679555367004   -4.27151175758895   -5.24488548058587
C           1.86075359248674   -3.50475821688654   -6.38146958786042
C           1.44182476256215   -4.08164474622418   -7.58030574023072
C           1.15641275994864   -5.44681333861144   -7.59560239694421
C           1.31678001691433   -6.21475675787539   -6.46123477409031
C           1.24670425937829   -3.27120201957188   -8.79015848549008
C           0.00589270236204   -3.54651157581245   -9.53214967040050
C           0.01175336943900   -3.67005976343798  -10.92073756766534
C          -1.15560394168445   -3.94773745374017  -11.60501754727589
C          -2.34708331476412   -4.10895662283298  -10.91672286447712
C          -2.36152802858077   -4.00283480970623   -9.53594712770808
C          -1.19445157959685   -3.73070967615339   -8.84772003072759
C           2.13048723679928   -2.32630014271350   -9.19636872472664
C           1.79562181232271   -1.36608482333303  -10.26425363088609
C           0.58100807204293   -0.68329797597670  -10.25363291288533
C           0.28440116022686    0.23543930409130  -11.24192821513925
C           1.19448238594549    0.48850056695811  -12.25515889393124
C           2.40873715347385   -0.17741026587497  -12.26930497922309
C           2.71072360684880   -1.09298027416236  -11.27893869928324
C           3.46728440602944   -2.17480910543527   -8.61920709516843
C           4.24954295502096   -3.28108595479084   -8.27057375163726
C           5.51428823156278   -3.11541294277879   -7.76214906452144
C           6.08113114311194   -1.83803137790948   -7.60356645721166
C           5.29180520557700   -0.73352019109220   -7.95615005403998
C           4.01969228982027   -0.90133710164274   -8.45032015590558
C           7.41489544483866   -1.73910235281272   -7.09733874353116
C           8.28692780979624   -0.68826256871766   -7.12765183370228
C           9.60754897327603   -0.72098184514568   -6.59919218430902
C          10.33402511964862    0.40987601285484   -6.80929180013562
C           9.64117528138104    1.41185593444730   -7.52122355872282
S           8.01642890404376    0.87662534106274   -7.88864704340256
C          10.11260512866042    2.64890041383284   -7.92666063313707
C          11.38297842567687    3.20992139734565   -7.69914352101271
C          11.55050834977519    4.44482311492809   -8.26360739851309
C          10.42685349906978    4.91926745145247   -8.96358236930028
S           9.12858598574577    3.74488458336147   -8.87302888895124
C          10.31874339277048    6.11657840146669   -9.65312008157364
C           9.19456762042753    6.52805470026854  -10.34387769348023
C           9.09295302469890    7.71100119584198  -11.05716803798746
C           7.97473021884720    8.16546169283144  -11.78144764138624
C           8.15676986861528    9.36782654608275  -12.40409496418419
C           9.43601974356338    9.92635277433783  -12.20192232764717
S          10.40022771606848    8.87188519995310  -11.18756515935016
C           9.93233889910772   11.11504570094403  -12.69834124822949
C           9.26225031017854   12.04901439774576  -13.52924267408489
C          10.00499063987880   13.12905768838430  -13.87018282790432
C          11.33108654985469   13.12902063060602  -13.32847533229321
S          11.56043663877292   11.66594102360538  -12.35771545965051
C          12.28890935681953   14.05400023751628  -13.49309880246833
H          -8.67741084800378  -11.36559010372548   -7.10936146860631
H          -6.86972203084215  -11.66898152222920   -6.96388407766722
H          -9.80805030465971   -9.77265693998310   -5.30495062693782
H          -9.17590406424568   -8.39347473883350   -3.22762905136536
H          -8.10807440310518   -7.34537003520624   -1.42462766002953
H          -6.44666156514460   -6.50317109987983    0.34040397894198
H          -4.11334663090609   -6.68783785454783    1.05028285186273
H          -2.38257712342500   -8.60743992284475   -1.75622732823154
H          -0.04905020104058   -9.27517975475171   -1.61256976077112
H           0.22050617197916   -7.57922653863021    2.29932745921985
H          -2.12216417278604   -6.88520743477443    2.15763025825624
H           3.84695781296649   -8.43723795734373    1.95900380325312
H           4.41593635046314   -9.41309009202730    4.14193091220157
H           2.89780309585122  -11.04361709181557    5.20451394351275
H           0.79732384928661  -11.67916904912307    4.07490410417440
H           0.22787055043310  -10.70346942561228    1.88846296949481
H           3.08159037139574  -11.36374325480842    0.17131544327609
H           5.27515620164118  -12.47091850418206    0.22399046834798
H           7.30655610984085  -11.22908528397942   -0.42716804962600
H           7.12552080500193   -8.87568054226109   -1.14882063184667
H           4.92964547921678   -7.76599730159236   -1.19987538275599
H           1.43330650699160   -6.35611154930372   -0.70834784255071
H           1.09366759098175   -5.00423827335259   -2.72153570949454
H           2.80246022693811   -8.11515060006765   -5.09945904900744
H           3.12437578758707   -9.47507102676994   -3.08567157085268
H           2.34614626155946   -3.80780288901130   -4.33000771123883
H           2.06332336029745   -2.44415264050120   -6.34540829034063
H           0.81834408668218   -5.90617578879776   -8.51394626796172
H           1.08351300980652   -7.26912224323084   -6.49309450439207
H           0.94079802801391   -3.55965955041671  -11.46035627374779
H          -1.13582546279949   -4.04220882061108  -12.68103091816950
H          -3.25931391903748   -4.32263951993625  -11.45403714744952
H          -3.28611012202400   -4.13482433134079   -8.99276523007631
H          -1.20861853131715   -3.64562257392901   -7.77014091886046
H          -0.12549397906182   -0.86881441030232   -9.45784174673230
H          -0.65987825107788    0.75987025458173  -11.21969905028494
H           0.96032855447862    1.20607147982466  -13.02768682990243
H           3.12469074601066    0.01982944861642  -13.05399592920147
H           3.65874444864878   -1.61238201095266  -11.29204196717058
H           3.85798282494806   -4.27646327503126   -8.41887638210337
H           6.10173527737797   -3.98492942281164   -7.50242302728928
H           5.67204285009688    0.26582001143670   -7.81700710688370
H           3.42741816693123   -0.03287782285157   -8.70140705294234
H           7.80979513120978   -2.64849433786920   -6.65859145836811
H           9.97543913204204   -1.59111501059672   -6.08412634133807
H          11.34993613476459    0.54501192390912   -6.48357121818245
H          12.13929196985940    2.69737041404078   -7.13223232872638
H          12.45511605955386    5.02368610777186   -8.19786696964641
H          11.18722121132113    6.76343840896665   -9.65174638914682
H           8.32482875177807    5.88262221225006  -10.34037666030132
H           7.06576987303873    7.59117823119302  -11.82498676890087
H           7.40811325039211    9.85907676573193  -12.99921420866982
H           8.24766353996545   11.88754800943542  -13.84830774276213
H           9.66574343561694   13.93793486977684  -14.49260525422016
H          12.10876475405683   14.92927830160410  -14.09170566875271
H          13.25656567817679   13.95315119408872  -13.03734080435699
