92
 SCF done       -155.688413473291          0.000540850942
C          23.06016214331163  -20.86715342686954   -0.51116733814032
C          22.67078883080552  -19.58172579899836   -0.53545086203649
C          23.39926690732994  -18.43052903983866   -0.10240171020812
C          22.74419268722547  -17.25328248349373   -0.28594148678163
C          21.45323812169721  -17.38612062839921   -0.83877034120272
S          21.09335131033522  -19.06718596840042   -1.15435746399109
C          20.54542736536085  -16.37009176224749   -1.12111248575589
C          20.69438546297133  -14.99582595909750   -0.90710632022175
C          19.57969376996347  -14.26138012369968   -1.25037751080996
C          18.52116582099271  -15.02519335699387   -1.73765507383105
S          18.96600800534294  -16.71175635207301   -1.79077440047594
C          17.24772329589629  -14.55669288501625   -2.10299934509454
C          16.22257458180493  -15.33320143199246   -2.55118405755648
C          14.93227068132413  -14.84879815998015   -2.85187926550117
C          13.83362009123401  -15.57319419601684   -3.28812386038388
C          12.68287701929479  -14.80960429489869   -3.44818861176186
C          12.86386670109036  -13.47278721586827   -3.14235168466281
S          14.50769738424546  -13.16718688272826   -2.65615208343234
C          11.91236952968218  -12.42288594078650   -3.10519505400504
C          10.53387045574512  -12.47473509565609   -3.17919399747344
C           9.92938026302554  -11.23939468910471   -2.95451128709005
C          10.81608691543844  -10.21584538191694   -2.67157131930689
S          12.44738043061998  -10.79826194029357   -2.79714197969383
C          10.45543025414690   -8.86029875480088   -2.40109588725469
C          11.14234039419686   -7.86898616438514   -1.78484752084387
C          12.38490820484996   -7.89681732229922   -1.08027871196637
C          13.18494448227181   -6.79952445832612   -0.81880719588921
C          14.35273196634298   -7.09722311469366   -0.11704772883513
C          14.46101251298389   -8.43456256907423    0.20653049356997
S          13.06188398868547   -9.31078537673200   -0.33422994029525
C          15.54237516022791   -9.14835650567317    0.78621282985238
C          16.69907912965855   -8.67157174058671    1.37054786360852
C          17.58243710430905   -9.68069708998267    1.74792783536562
C          17.13049054328633  -10.95574955094530    1.46097490125808
S          15.55672256248287  -10.88744535547361    0.71461927597002
C          17.79769700464618  -12.18554902354673    1.68071569621132
C          17.28567174827531  -13.39716550197922    1.35304746711072
C          17.94407172516042  -14.63661925153479    1.52094942628470
C          17.45404043201601  -15.88735871640500    1.18567144952864
C          18.34787956046833  -16.92349849165905    1.42011106628711
C          19.55568811166831  -16.49852813034655    1.95002077571884
S          19.55653473593691  -14.76983444085672    2.16841157888099
C          20.68399095398204  -17.28133037747056    2.27330086226156
C          20.82718214250748  -18.65730155769113    2.16235850849072
C          22.06997333890749  -19.11742306405247    2.56084812496186
C          22.92434469003580  -18.11869529947600    3.01945744559143
S          22.13617364184606  -16.56205113452513    2.91411651448567
C          24.22857710870245  -18.28016326769776    3.50517554611620
C          25.03061691942630  -17.26324101509824    3.94665047541590
C          26.32484618270078  -17.42714073020971    4.44986562773410
C          27.17284080308929  -16.42471183084223    4.92953983315467
C          28.38761371818203  -16.88140699265623    5.38175540150239
C          28.54281574375561  -18.27132928977188    5.27254610357906
S          27.10650459099298  -18.98711192842046    4.57532370248324
C          29.63642607369136  -19.04201988936127    5.64400411528841
C          30.84306111569605  -18.59400860799924    6.22777689866466
C          31.73804858357821  -19.58049716475642    6.49318968838828
C          31.29334925447488  -20.89002751822438    6.13152210599941
S          29.66913701115878  -20.77866800724989    5.43503819346268
C          31.94832815117212  -22.05516150099213    6.26971314321302
H          24.02840582540817  -21.13687703837891   -0.12845474838365
H          22.42696279969686  -21.65725566489685   -0.87005983121696
H          24.38776264677611  -18.52440483916023    0.31045638918132
H          23.14858559385244  -16.29132715165780   -0.02539078155043
H          21.59340755374001  -14.56991906076994   -0.50034480187851
H          19.50453670705207  -13.19373023255791   -1.13965439852387
H          17.08651742665468  -13.49138533747438   -1.98985620688874
H          16.38064010258488  -16.39720475231480   -2.67616362707952
H          13.88068127272779  -16.63175345156921   -3.47431336123480
H          11.73945475206093  -15.20786470263593   -3.77594084262398
H           9.98920502803569  -13.38380648695599   -3.35954308957249
H           8.86317487355045  -11.09257214350204   -2.95150063182764
H           9.46764283436165   -8.60437799229291   -2.76807046368352
H          10.68980709520139   -6.88383998940266   -1.80716434373133
H          12.94111868326900   -5.81293778391704   -1.17303215242194
H          15.10943021103417   -6.37172866372966    0.12122089946899
H          16.88856295893301   -7.62330375462685    1.51612500628641
H          18.53455898855422   -9.49809926069781    2.21441149629651
H          18.78184998711503  -12.12605373202313    2.12875201476254
H          16.29857909113764  -13.44940343914525    0.90977125231220
H          16.47377977057520  -16.02457295480009    0.76438701308421
H          18.13899709183035  -17.95512896704637    1.20319642287881
H          20.04503494924258  -19.29258063310490    1.78836738461335
H          22.36131738934053  -20.15264564572960    2.54094217370111
H          24.60891683160688  -19.29380674149749    3.53027250178597
H          24.64783662809141  -16.25032559729713    3.92052046358767
H          26.87641698526070  -15.39032761986049    4.93739815541765
H          29.15661686238426  -16.24784799627827    5.78495388393119
H          31.01335115591497  -17.55262206880526    6.43670142841528
H          32.70593585509268  -19.42979120454725    6.93694206960475
H          32.93473714032970  -22.08102763149871    6.69757734731310
H          31.51473748900029  -22.98795371257541    5.96017495226314
