74
 SCF done       -145.009959800844          0.000551059340
C          -1.98549356145709   -0.87978437193762   -2.66384672505578
C          -1.32591269731877   -0.74129004157694   -1.44849595210183
N          -0.87087327102559    0.41891314306473   -1.01860704399680
C          -1.07257746136236    1.47406165115117   -1.80938482264480
N          -1.69142091092656    1.44830261324313   -2.99198623943585
C          -2.14037756654941    0.28160504725938   -3.40977037639346
C          -0.59197006707608    2.75278747542342   -1.36368865324616
C           0.07542463489696    3.05616949807918   -0.19859625134042
C           0.37136472586607    4.41971873373757   -0.11916248418286
C          -0.08498277625365    5.13632317900125   -1.24282037362409
S          -0.86730862501054    4.14204001610825   -2.38651596364062
C           0.25144929027384    6.50300151910582   -1.06721615814676
C           0.91813906778442    6.65170313116900    0.15788571638515
C           1.01443272801084    5.34348574510320    0.79562268122628
C           1.58321183732481    5.06230488846256    2.00351763565338
C           2.17364132717535    6.06262551135995    2.80369788389233
N           2.65153596394222    6.87457772490981    3.45761113025951
C           1.61815899694701    3.75744669170339    2.53905059325524
N           1.65593649363627    2.70329572703530    2.98846155116316
C           1.28102546889553    7.97055722798552    0.42633652137237
C           0.88953236047210    8.83469731465599   -0.58142959092646
S           0.06714038261945    7.98862383757138   -1.88977942962373
C           1.07178737393454   10.24644803795562   -0.64226434029582
C           0.55021354219323   11.01322466650234   -1.65643554724117
C           0.66877031127418   12.39739088369202   -1.75934920381522
C           1.30567075253851   13.17280532008812   -0.68445463656329
C           1.91003568178107   12.62320297476422    0.39102857287720
S           2.00744226487283   10.93516591323864    0.67957712601848
C           1.11764404256058   14.53699558031560   -1.03800823891253
C           0.41635427564466   14.61563742463285   -2.24152826452452
C           0.19660739296143   15.95129491337581   -2.64405696895941
C           0.72243729184188   16.83198967810026   -1.75314040290713
S           1.50528722889762   16.08476142525626   -0.40077281157477
C           0.15406519156217   13.28497905094732   -2.72476454362163
C          -0.49920963121203   13.02337845876101   -3.95341232755216
C          -0.43931511578110   11.87033963829292   -4.67152369955813
C          -1.13547072370996   11.64154925320641   -5.88293445384524
C          -2.08310322522422   12.42962038558543   -6.52190270465938
C          -2.54255771663781   11.84795786293654   -7.69926961001458
C          -1.94678563563004   10.60555830513086   -7.97260158562101
S          -0.82304381201821   10.15297009051561   -6.76714088475102
C          -2.47873062069584   10.10972465714021   -9.18864180303996
C          -3.41483218892707   11.03491593148835   -9.68200173806961
C          -3.49109222540627   12.15385075472839   -8.76518832214376
C          -4.28343334784544   13.26091917767296   -8.86600322342679
C          -5.17606156909735   13.44798410873719   -9.94148904204182
N          -5.90238521967869   13.60164295422047  -10.81559934592981
C          -4.26211874184277   14.28730111840526   -7.89995247178363
N          -4.24332006698168   15.12384910069765   -7.11537112887369
C          -3.99231007204467   10.62845036780115  -10.88999988274452
C          -3.50700942614091    9.41490587566558  -11.31971556067076
S          -2.30906806505217    8.75267842754731  -10.20540085009964
C          -3.85515446754217    8.68836620947419  -12.50944156225552
C          -3.22396466551208    7.48865195370182  -12.86765778547576
N          -3.53223019440208    6.81556338808172  -13.95673323016565
C          -4.48145996165605    7.32215616783637  -14.72471215528560
N          -5.15016086375465    8.43897583830609  -14.49628471804880
C          -4.84746081087546    9.11419210780895  -13.40708496154247
H          -2.35473429452576   -1.83132171026721   -3.00723368759954
H          -1.15360827670010   -1.58495156148933   -0.79219314901116
H          -2.63827280468241    0.28448722916244   -4.37125560652971
H           0.31856519362217    2.30917581418021    0.53429624101356
H           1.79690948286573    8.30021863282492    1.31005352844087
H          -0.03081689214531   10.48785035373887   -2.40137432213786
H           2.38526127495080   13.21707105046730    1.15574513032851
H          -0.32144212255976   16.25041546385794   -3.53696377128075
H           0.70406233636694   17.90326951175291   -1.80009548637139
H          -1.05591294685192   13.85617256766028   -4.36237551599405
H           0.20824160648604   11.06781157729454   -4.35042155181281
H          -2.41970391413237   13.37350531506678   -6.13580875682932
H          -4.72761779636813   11.19724629265572  -11.42866877789468
H          -2.44167772602896    7.06429546681830  -12.24862593681729
H          -4.73446736431968    6.77260963592187  -15.62105420585974
H          -5.41338907892595   10.02102009561406  -13.24178547331403
