90
 SCF done       -195.630856104237          0.000678721142
C          -3.72294449794081    4.06874556449681   -8.59788155788092
C          -2.44252985717444    3.73792499872461   -8.26836650811840
C          -2.13667861643605    4.12679334191559   -6.95125395044921
C          -3.21649852198996    4.75476981151300   -6.31613083114564
S          -4.58923850027616    4.86261174033883   -7.32691575186875
C          -2.82444397654518    5.11283247931509   -4.99839742460353
C          -1.49220523450900    4.70325166342224   -4.80240848055928
C          -1.00724127818279    4.09960298959890   -6.03824894691550
C           0.25729475363076    3.66573905023804   -6.30362760038000
C           1.32545238290346    3.80238318275212   -5.38920288742990
N           2.22136971073741    3.94670931307409   -4.68948118771293
C           0.60382852492608    3.09821275511832   -7.54886608525659
N           0.88939357058527    2.63452791384149   -8.55788214307741
C          -1.02202572491271    4.97131120761723   -3.52140128966999
C          -1.98291959402291    5.60708211661630   -2.74594708644943
S          -3.48793263758703    5.86464975384652   -3.62039645240145
C          -1.84107749735377    6.03033112061564   -1.40840610911215
C          -0.77763249844265    5.71965039929827   -0.54426874348345
C          -0.91727390788593    6.32536684822836    0.75610255516723
N           0.01902348923676    6.15789689221981    1.69733507340289
C           1.03578805347336    5.38559239061442    1.39487075069816
C           2.09557376506846    5.22142371188630    2.42816690908894
O           2.04030621812658    5.75033200588691    3.51574661496481
C           3.22835363867073    4.36494844800743    2.02848420192398
C           3.29596776611045    3.71659999086178    0.86209089832602
C           2.23775870642769    3.77329337695967   -0.16351116905391
O           2.25277418461528    3.07561578309293   -1.15356256047851
C           1.13744822325492    4.72690913449558    0.12810790900544
N           0.24849446500905    4.91554746416218   -0.82282349230246
C          -2.09105477060050    7.06852743640668    0.87268507340744
S          -2.99946873154375    7.02903428686586   -0.59493454422229
C          -2.59582518672705    7.79807546472835    1.97811059525595
O          -1.91567022921308    7.84622508278995    3.15236767359193
C          -2.68128489201970    8.61295062856449    3.95855709312776
C          -3.83150213769925    9.00821632315176    3.20879821810365
N          -3.71808633453314    8.46041015562187    1.96301508930052
C          -4.82622523741261    9.80593915584696    3.74929157537149
C          -4.61276707055259   10.18269531543365    5.06548943134746
C          -3.45265609595149    9.77504443253675    5.79502228739869
C          -2.45207245519068    8.98035835006378    5.26997303186847
O          -3.54997416637100   10.30422156857580    7.03126533156526
C          -4.72834992007890   10.99771908313716    7.02752521680660
N          -5.37512707401153   10.94903206578136    5.89674710871620
C          -5.14166171923793   11.68356217213704    8.20363871569716
C          -6.31393949130605   12.36556560196458    8.22616969137343
C          -6.80988537393903   13.07168201636706    9.34211316654387
C          -6.25873333844670   13.24185660387944   10.61975042765103
C          -7.08667614699731   14.03080429136829   11.49543565147793
N          -6.74696358085208   14.23885800257917   12.76855198450277
C          -5.61116002995116   13.71860668950505   13.17863051832522
C          -5.26866985293818   13.89094367100957   14.61321886140029
O          -6.04730682190525   14.34688439869162   15.42158130998286
C          -3.91705273336829   13.43350131324685   14.98541658280578
C          -3.09639515505334   12.79228255389786   14.14751953689358
C          -3.43921970921412   12.47431373321139   12.74975907155152
O          -2.69939354234664   11.84087900881599   12.02789926751294
C          -4.75483003059712   12.99267268488612   12.29268875147383
N          -5.08838765014164   12.75527561168497   11.04392777107930
C          -8.26456727678557   14.48221011538156   10.87840184592808
S          -8.33504758736212   13.89849201527095    9.25033354784962
C          -9.26742990423354   15.28411852142585   11.45815142410701
C          -9.20157622699810   15.94009602320624   12.68075055345892
C         -10.36775528406845   16.65035924221631   12.94409163435246
C         -11.33685453273326   16.51785764598269   11.93266864533402
S         -10.80054275808245   15.55111815681988   10.63531911101600
C         -12.49616839565792   17.24063253846582   12.32057804220103
C         -12.25993626319677   17.83143116898149   13.56927752185804
C         -10.90802975867757   17.51065643772808   13.99124507678012
C         -10.25697552377130   17.97282675441340   15.09598892426058
C         -10.89257024089611   18.80780998988703   16.04013003770411
N         -11.40850420693005   19.48302072428432   16.80993083212648
C          -8.89253502552698   17.71020778837731   15.35055582610305
N          -7.77555979280984   17.55745911399511   15.55564017352617
C         -13.36548823001483   18.57037386994712   14.02957469584066
C         -14.39784841798458   18.52320997503248   13.14144983370720
S         -14.05837876658768   17.58904080948341   11.72373505972875
H          -4.22585930904528    3.89320986191899   -9.52786550112303
H          -1.76411811631828    3.24110559125933   -8.93731905405903
H          -0.04986926906578    4.72512749878692   -3.13341756387343
H           4.01617857763184    4.28137583771700    2.76520603623211
H           4.13885519121340    3.08516820985793    0.61530247245363
H          -5.69477660955360   10.10770998211503    3.19215895215927
H          -1.58120282577145    8.67587019911402    5.82345840380307
H          -4.49393670177764   11.63879607409988    9.06568110781420
H          -6.91873569855787   12.37234903590764    7.32927787431056
H          -3.63328561926497   13.63276273614955   16.01000731934049
H          -2.11975622806220   12.45299548400661   14.46584923547857
H          -8.33863933552346   15.86937626416694   13.31831364626329
H         -13.40438547132635   19.10463249350580   14.96105120028535
H         -15.35971602357064   18.98758668902208   13.22935394088984
