90
 SCF done       -197.128447517277          0.000578147157
C          -3.72649719999647    1.62764722355818   -8.23686122194973
C          -2.46381963430200    1.35729183683325   -7.80219933730182
C          -2.15251645037471    2.09233579373601   -6.64335059491364
C          -3.21165043022380    2.91401106795756   -6.23244414082624
S          -4.57042983121567    2.78155838514489   -7.25956900920070
C          -2.81776751789125    3.61182661362305   -5.06109108119606
C          -1.50495364367219    3.22700673217493   -4.73085701155454
C          -1.03344148955421    2.28321509532427   -5.73912713447779
C           0.21555243895693    1.74755855165754   -5.84529620604060
C           1.27995528440772    2.10675248703551   -4.98883206110645
N           2.17446770213758    2.41741584845982   -4.34345620468680
C           0.54975687666470    0.83396899885222   -6.86799616490215
N           0.82205300322741    0.08767624256031   -7.69477151102156
C          -1.03899133788181    3.81593968708073   -3.56143911642163
C          -1.98577911056946    4.66866112036772   -3.00612031198814
S          -3.46849030385024    4.73292209605182   -3.95303231972076
C          -1.85035905578110    5.41102661674374   -1.81851315025348
C          -0.81763397760116    5.31070091316314   -0.87487293907615
C          -0.97811543441077    6.21234381727540    0.23447733985345
N          -0.04074839646510    6.31272732945136    1.17879323036862
C           0.99334295904120    5.50650130087520    1.08608551131667
C           2.08606981607926    5.68843413334013    2.07612221188855
O           2.10733789115919    6.60977558449885    2.86254231153623
C           3.16342305982737    4.68521064727575    1.99980751956947
C           3.20443791341199    3.70708853326173    1.08929752889512
C           2.16837869611793    3.50152988252737    0.06105135872226
O           2.18237564554497    2.55910224434682   -0.69987251952206
C           1.08391433459040    4.51764488689095    0.05646952399284
N           0.20283321729896    4.45088862905854   -0.91637788838498
C          -2.15284705127522    6.97503187788558    0.15838875860576
S          -3.00919288036348    6.59728775263636   -1.30511587628402
C          -2.61546933720812    7.90497858777588    1.10479368791875
C          -2.12169269940966    8.08081438221338    2.39402567754943
C          -2.82152537225826    9.06109578830461    3.08230614425917
C          -3.83374925820667    9.66984555840544    2.30562456356799
S          -3.95236371087058    8.99095728212422    0.74164587146665
C          -4.45242540683209   10.67206934630402    3.07460763757116
C          -3.85398211361094   10.69779702530425    4.35528621197699
C          -2.80833822904709    9.68597546586813    4.39695165575873
C          -1.99389323705967    9.38176185423568    5.44569561790071
C          -1.97650891937134   10.13782590044051    6.63940670529058
N          -1.90440867125437   10.76874213386555    7.59320237437211
C          -1.10364646545995    8.28452316355247    5.42111843622798
N          -0.42071598017667    7.36461994174276    5.44193867883288
C          -4.43086284745036   11.62799256832005    5.20790154163659
C          -5.44630667419485   12.34234417999127    4.57909087000554
S          -5.69420144441863   11.83459752649400    2.91171851113838
C          -6.22338609154462   13.36440903833466    5.14996806736980
C          -6.28374004601812   13.72026518905337    6.50541659147879
C          -7.15679349634508   14.83558100575188    6.75765925137352
N          -7.26608520619612   15.35695658648228    7.98177016098780
C          -6.60232980194605   14.76332485851737    8.94832768186706
C          -6.64834410217624   15.39678033452485   10.29193227581093
O          -7.15340868200605   16.48072160285931   10.48509780534296
C          -5.99710739620321   14.62238765220998   11.36387602403195
C          -5.36011974957867   13.46448006914573   11.16180923902015
C          -5.24589210320465   12.81172139689834    9.84505774901147
O          -4.73588942570041   11.72260620550416    9.69899612984239
C          -5.84272851234979   13.57338577266468    8.71766846004666
N          -5.66952022899771   13.08912544701121    7.50788051213766
C          -7.79375226240544   15.30788108132073    5.60090092400553
S          -7.27792015519050   14.38722516036606    4.22265312456644
C          -8.71435621308349   16.36850893824514    5.51441905681607
C          -9.30719970531325   17.03883913995752    6.57790298467485
C         -10.16930459760922   18.03585457411022    6.13690387165574
C         -10.21968390663175   18.14554040702546    4.73471925624729
S          -9.23442375702824   16.99389108657460    3.95312207440040
C         -11.08687548322340   19.21685980844200    4.39640919467586
C         -11.58656955087439   19.78082254959623    5.57875017608125
C         -11.05585714200670   19.04323406220668    6.71049209365276
C         -11.37017954064297   19.21046916263500    8.02632843863061
C         -12.24423597791225   20.23090985655363    8.45886127728468
N         -12.95185660213928   21.06032548639534    8.81396611422434
C         -10.90265176469046   18.34861453456249    9.04316116806731
N         -10.58102644223886   17.63560419049880    9.88061537612359
C         -12.46007836339701   20.85601259695856    5.33133066242369
C         -12.59915585121969   21.08494265985329    3.99548294737156
S         -11.68322306235252   20.00240407968263    3.00135821956190
H          -4.22922285750053    1.21424107737271   -9.08825871649678
H          -1.80086471768550    0.66601566585388   -8.28919735276493
H          -0.08216672352124    3.65114250779141   -3.09946286784427
H           3.94350292434030    4.79759393669833    2.74070348933224
H           4.01607230262096    2.99238013961204    1.06720383034791
H          -1.29272375493584    7.50654125597421    2.76664414797204
H          -4.16563044434754   11.80466252242734    6.23476527852389
H          -6.06083713218141   15.06533362974887   12.34866407176811
H          -4.89259690644055   12.92936783245776   11.97734987051720
H          -9.08605104729377   16.79053229169180    7.60044631569400
H         -12.95627146836871   21.43306532470019    6.08988212871518
H         -13.19439968064687   21.83728664714614    3.51783921607930
