82
 SCF done       -155.714082169362          0.000684824854
C           5.63647704489618   -1.56177210282082    3.15647322362108
C           4.41824369703383   -1.95081078809316    2.69374427075418
C           3.55637955727923   -0.84870632641904    2.52387855027288
C           4.16394043157935    0.36587685474590    2.87070965772526
S           5.77290315952644    0.15353018385705    3.39765732641329
C           3.23067512153167    1.42222849917005    2.67518991317626
C           2.03365874982363    0.86300886019237    2.20413410480577
C           2.20035286030211   -0.58258988191077    2.09483912147824
C           1.25959461721493   -1.48263299227422    1.68019743365751
C          -0.03455913330157   -1.07892609260348    1.29711244378762
N          -1.08873936523693   -0.74860425320600    0.98623768225083
C           1.51728741603335   -2.86631062551729    1.61307979714781
N           1.71984190604102   -3.99407416762697    1.55383430970901
C           1.04068382687988    1.81352077233089    1.98498700241138
C           1.46590347090137    3.09689347288365    2.29349229332887
S           3.13313709841513    3.11972021909213    2.85257861528970
C           0.69051127687687    4.27601201607722    2.22530847908794
C           1.19486999291124    5.49743041735261    2.60448982382754
C           0.28199315407478    6.61925288025642    2.54484343826108
O           0.72103627377412    7.87783659685645    2.78351065505246
C           2.12980104830263    8.01580190565546    2.85829544836469
C           2.75197762992201    6.87395166938596    3.64980601294772
O           2.47145372563577    5.63453730889460    3.02254919853966
C          -1.00788490590522    6.30453357105170    2.18288403667965
Si         -1.09773802154101    4.48661902378807    1.71440577351857
C          -1.35520117531592    4.19081337709414   -0.11739893641301
C          -2.32028265165672    3.53578864893898    2.76696533557035
C          -2.09636125186537    7.22314342306086    2.11290376040737
S          -3.30813767053901    6.96964550309758    0.89560684967879
C          -4.17942640909450    8.36146229269400    1.41724834192431
C          -3.59599359255289    8.99759030736683    2.46308202567400
C          -4.20883649182456   10.19983142136102    3.10186086478335
C          -2.39524423032309    8.34190934514596    2.89412160025104
C          -1.61227350288511    8.64382221409552    4.04888794616235
C          -1.48729888716558    9.81789380748150    4.71400079037299
C          -0.58998295397300    9.93609718132459    5.80449379308189
C          -0.38821150534199   11.06315938652689    6.53303345455830
C           0.59016391739737   11.16691084158654    7.55709239896235
C           1.72791341340393   10.38780989593845    7.74963000411901
C           2.20288830830338    9.49842049006746    6.78110043691677
N           2.62942783842741    8.83642384683665    5.94396334488331
C           2.44795586802957   10.75004249753626    8.92390454811045
C           1.86370666340701   11.83424777965541    9.56230799727236
S           0.43303412316239   12.40373070609647    8.79011816319267
S           2.69909924858269   12.39261226879912   10.98134094774584
C           3.85807657269565   11.12998383272937   10.73397420833054
C           3.61279755343783   10.32098427101151    9.62577425759397
C           4.57554677776063    9.28461675409001    9.53446691385489
C           4.51216211067703    8.26464660711654    8.57242516876487
N           4.43110779203845    7.41125217984175    7.80968349626498
C           5.53080727446556    9.35055645047013   10.54697040665781
S           5.24465929554757   10.68328372678907   11.64528304967437
C           6.63658583469673    8.46668696693210   10.72599788476666
C           7.61734693278048    8.45849613182118   11.72343876883328
O           8.46842707167457    7.43536362666728   11.48831488656410
N           8.08744817923231    6.78153509954063   10.38480591904496
C           7.02280758770469    7.35544981012388    9.91361808631567
C           7.86640390110978    9.28765909280631   12.87538542551754
O           7.19756224227998   10.24230068425879   13.20084355994562
H           6.48512554692722   -2.17704082895564    3.37829949132172
H           4.15550152098400   -2.97242491954332    2.48784465148351
H           0.04946551743183    1.61069061136555    1.62598219951653
H           2.54739021449144    8.03824510244725    1.84230615894702
H           2.31382154317241    8.96649888798459    3.35972193279613
H           2.35974716295681    6.87616383738321    4.67272571257602
H           3.83688718956015    6.96793874598656    3.68615849022628
H          -0.65341857788900    4.75463558909942   -0.72940186048081
H          -2.35590403224893    4.47695413857396   -0.43340833349612
H          -1.22945614919061    3.14019118275142   -0.37232331319869
H          -2.11584689324111    3.63256929184502    3.83188640815443
H          -2.31253972882290    2.47262931971685    2.53583413123341
H          -3.33818361171452    3.88497880136983    2.60341973195491
H          -5.08734402081833    8.62821206222409    0.91276703795747
H          -5.22141735976086   10.34027285247964    2.73038667228562
H          -3.63407003117903   11.09531593631092    2.86749752262709
H          -4.24346028702164   10.08102059862861    4.18322421720974
H          -1.02825118935582    7.81031975798840    4.41749746469214
H          -2.00798778425055   10.70862700108035    4.40173327487928
H          -0.02052222077320    9.05070953355432    6.05216395638967
H          -1.01099923593227   11.93256693533933    6.37049852668837
H           6.55755157401406    6.98107090557236    9.02612376878864
H           8.74623203510288    8.96619716750128   13.45608784597268
