91
 SCF done       -193.223626449521          0.000490518717
C           0.81494785425161   -1.51413513816043   -4.54835931284112
C           1.27415043329628   -1.38435509031391   -3.27186183238142
C           0.79578671358985   -0.20329235665584   -2.67535663629080
C          -0.02669413810310    0.53747487205784   -3.53769056095357
S          -0.20684316339845   -0.21219204799325   -5.06045879678466
C          -0.46754931838972    1.70820123914209   -2.86428416028690
C           0.08581197907191    1.69852496367536   -1.56771615392009
C           0.89598387931300    0.49657850136470   -1.41013753115406
C           1.59551060111003    0.11730983158380   -0.30121521999924
C           1.61134290791228    0.89244522655350    0.87680145208181
N           1.62536350155253    1.51864918691325    1.83752672282080
C           2.34853540229611   -1.07451540878227   -0.25867852210039
N           2.96403542229920   -2.04127456957080   -0.21932905764342
C          -0.28471465928325    2.80520206577192   -0.81665902509351
C          -1.11755583368840    3.65352994665049   -1.53816424138346
S          -1.44470358550389    3.07553479201545   -3.16701110450310
C          -1.70133756432955    4.85805431055525   -1.12151921216708
C          -2.54092632049523    5.65051281712163   -1.90832150570245
C          -3.02628452574630    6.83279039895255   -1.24668979535118
N          -3.83050945538883    7.65900083108142   -1.89876254763466
C          -4.15791084033808    7.36283982794683   -3.14832409425840
C          -5.05350625765808    8.30108156337274   -3.83512836975011
O          -5.50427106921871    9.30382845335214   -3.29010558694189
C          -5.37446805514190    7.95730004643539   -5.22108550990075
C          -4.91212777536884    6.86009121861718   -5.83745077797645
C          -4.03154078544215    5.87379391158687   -5.19638663593331
O          -3.63372305303115    4.87974352912793   -5.77201305628145
C          -3.66633996052907    6.18916474878817   -3.79507505751861
N          -2.86993847290149    5.35291853233676   -3.16453254147304
C          -2.54438408472762    6.95818502428913    0.07789433704331
S          -1.50112998083524    5.58420065017684    0.44018261874169
C          -2.73684043158708    7.91780494504731    1.07108763775647
S          -1.86474346827478    7.70587987275835    2.56956414542754
C          -2.53968308892366    9.14258858016799    3.28614168569922
C          -3.43470586342538    9.76698420425516    2.38266957962546
C          -3.53895682232430    9.08935787582058    1.13327941147990
C          -4.37458045672703    9.61128158687656    0.14340201324538
C          -5.08657175521642   10.76436651248844    0.38174320037317
S          -6.13891905087460   11.44446912576726   -0.86096005312096
C          -4.99423853912530   11.43803686337264    1.62891994766337
O          -5.68785638323423   12.56028404568845    1.87904499240023
C          -4.16930620618915   10.93447406638725    2.61472093849025
C          -2.19028024325773    9.57532411211032    4.55924230150654
C          -1.25903798900084    8.95311175051195    5.36165256289005
C          -0.90046899407966    9.42929202157852    6.62069614200760
C          -1.40046769972733   10.55202523491584    7.31623406478107
C          -0.77576759302086   10.75703292789419    8.59327107160817
N          -1.17822655268172   11.73408689948271    9.40912905578903
C          -2.14778873883092   12.51341877842048    8.97922611240107
C          -2.65044667163475   13.55376502872773    9.91383386104180
O          -2.29960286196717   13.61813817186409   11.07188326258101
C          -3.63714181212722   14.48112511507107    9.33173143943300
C          -4.14099460035892   14.35272407192764    8.09918928768690
C          -3.76123474322121   13.27349067051926    7.17328025949842
O          -4.25844093958044   13.14820673870282    6.07128970687535
C          -2.72068149152148   12.35316914813038    7.68330392424622
N          -2.34953162994529   11.37381252902177    6.87979982838337
C           0.22344279674205    9.80973833753783    8.87638083459795
S           0.33459630739348    8.65735714625663    7.58082660457991
C           1.04221351183940    9.76922276717021   10.01671261110789
C           1.14947662837697   10.75641210097233   10.99236325488719
C           2.06939797661420   10.40926637388710   11.97197113234112
C           2.65037488056229    9.14254336791264   11.76547780134719
S           2.09382782736344    8.39340489809597   10.33740428555537
C           3.53408434394962    8.87230569238162   12.84078430438504
C           3.51886877140906    9.96428279290143   13.72176526995022
C           2.62739321021756   10.97928803282488   13.19441065741965
C           2.41080148134710   12.22985208471910   13.69308465710087
C           3.01366545089446   12.66820413938192   14.89149875011334
N           3.50039221991503   13.02423954580297   15.86686732092500
C           1.62901939929143   13.19883884572499   13.02648660977241
N           1.04379278124204   14.02273894533458   12.48584601562670
C           4.37651899926865    9.77657609793707   14.82150607004544
C           5.00865940312402    8.57141986715350   14.75800922837159
S           4.58832569040921    7.63323870234888   13.36376148988252
H           1.01568551586873   -2.30977638249752   -5.23776507191502
H           1.91848307569801   -2.09874794976618   -2.79297944789491
H           0.01387715987793    3.01081680324405    0.19576168221264
H          -6.02372747768670    8.65541332749358   -5.73205303454595
H          -5.17568561649273    6.64278793083998   -6.86349898065771
H          -4.45111795185509    9.11007387819746   -0.80694132108482
H          -5.86089046226717   10.54773411860658   -1.80460957021831
H          -6.22174172004699   12.81054309420019    1.11200251372562
H          -4.11336982143439   11.46235054420797    3.55286737476607
H          -2.66907991687104   10.46821743686061    4.93525004819809
H          -0.75840919354207    8.06161967463838    5.00408922366097
H          -3.95356671990292   15.28060613523623    9.98794033526280
H          -4.87867630163009   15.04595751011371    7.71793127172610
H           0.56429082427980   11.65769287166920   10.95428935584600
H           4.52044819602100   10.48412389920773   15.61732310799016
H           5.71139356162566    8.16242461388416   15.45615095067429
