104
 SCF done       -207.334801659531          0.000665405350
C          -3.82804220856529  -16.60248237994473   11.17166243765012
C          -3.79243105448623  -17.94792694725785   11.40782208707503
F          -3.13093430065790  -18.42848718915027   12.46944449616490
C          -4.44804387992454  -18.84591285169578   10.54183539335217
F          -4.39677501299019  -20.16061177068594   10.79854869073687
C          -5.12967079590995  -18.38587197070015    9.45031765293862
C          -5.18376883709622  -17.00486314450720    9.17931736153055
C          -4.52296686237339  -16.09552612453101   10.05492888491977
C          -4.56552504496204  -14.70487083209280    9.80553990954801
C          -5.24675205281822  -14.23635190721223    8.71233835392845
C          -5.89606162281642  -15.15207315442163    7.84190681886596
C          -5.87637565019832  -16.49988980075409    8.05700844274465
C          -6.54266377160858  -14.41402437097667    6.73939224202168
O          -7.18499479045338  -14.92070372790728    5.84247291867091
C          -6.23324317650513  -12.98498076964823    6.97301358491571
C          -5.46717346144856  -12.88354474913113    8.20746200517853
C          -5.03341211146031  -11.74357668820577    8.83369186694112
C          -5.24847841878813  -10.41099355789499    8.41977124800311
N          -5.37114889203209   -9.29416120114138    8.18022825750494
C          -4.29470140037283  -11.73771982492160   10.03691269251782
N          -3.69121686060115  -11.65273954727221   11.01008744872022
C          -6.54531559153046  -11.90308084079559    6.19355491565496
C          -7.26248977656731  -11.78020934071600    4.98472911387227
C          -7.92072775386056  -12.68517291715327    4.18180031386419
C          -8.51625661003331  -12.10543897557099    3.04767582831792
C          -8.30553522896688  -10.69590941589299    2.98230730016135
S          -7.37209172435477  -10.13890660338205    4.33347513052505
C          -8.80234311818939   -9.92335088408434    1.95879104968543
C          -9.53807457593582  -10.55839776302797    0.95495164289074
C          -9.74789508979789  -11.96806235034737    1.01887259210662
C          -9.25317713745329  -12.74109203878692    2.03879272553850
S         -10.68998323168375  -12.51618042783970   -0.34019168636092
C         -10.80252855937697  -10.87744480797380   -0.98104782776827
C         -10.14047925750654   -9.97733471320280   -0.17621795895340
C         -11.52170371622477  -10.68114990413670   -2.17766739425636
C         -11.73799980936860   -9.50240473713291   -2.84252748948926
C         -12.48139574088803   -9.36147878031602   -4.04593279331026
C         -12.56246589123214   -8.08795882168648   -4.51705990954903
C         -11.88539015556313   -7.13947543324385   -3.71700645772684
S         -11.14413586511503   -7.93044655730741   -2.34270436648294
C         -11.76062189468528   -5.77790034237426   -3.89814072246188
C         -12.28196440362108   -4.96352833361572   -4.92969741273068
C         -11.96152383849316   -3.64759510575305   -4.80500712183462
C         -11.16523751945340   -3.33609816276601   -3.66922141189554
S         -10.85149557830384   -4.80439662666954   -2.76328324449727
C         -10.70431917934051   -2.08832847510629   -3.34135157324170
C          -9.90567784136426   -1.72680947149692   -2.23656535765670
C          -9.42033241608840   -2.48616952088296   -1.19619728853597
C          -8.63978369785649   -1.76102080014418   -0.27582973064469
C          -8.52238886742026   -0.38498427227882   -0.62960139393527
S          -9.39764687155764   -0.04406930660138   -2.09519669158344
C          -7.80090652547779    0.51001845397883    0.12114599811881
C          -7.16825600053877    0.03583225063295    1.27621611292973
C          -7.28363461145816   -1.33957706585746    1.62851402881720
C          -8.00628431516779   -2.23478956134113    0.87565379394844
S          -6.40845282014899   -1.69277485815259    3.08572571472150
C          -5.93196134820979   -0.01024843690808    3.25194176554881
C          -6.40338650022373    0.75730905554730    2.21228915921931
C          -5.09110483480167    0.34251438530546    4.33325374063329
C          -4.81526342592602    1.56545994068121    4.86644224554758
C          -3.58949421696121    1.71385410506543    5.70061404516386
O          -2.90406610363225    0.82267069663321    6.14407879325195
C          -3.36953305232576    3.16982381420220    5.81374768765930
C          -2.32123449043204    3.83679797402851    6.37829775986333
C          -2.30657580007169    5.24922470622650    6.34153764566707
C          -3.38054976598063    5.94297380420759    5.71206883080308
C          -3.35548515712210    7.35146474944442    5.67084572679776
C          -2.31547545563565    8.03854258796509    6.23107337804023
C          -1.25511369777430    7.35149449644239    6.85523980092776
C          -1.24946117882963    5.98590955134782    6.91025183978638
F          -0.24786735804264    8.05135867942312    7.39509803740622
F          -2.29404257070466    9.37753298698948    6.19116923912199
C          -4.45704662859777    5.22443400154736    5.14286854555463
C          -4.45524227404796    3.85649152906525    5.19990341987369
C          -5.42961658370318    2.86795380080238    4.73979494286645
C          -6.75053238570861    3.13213280178766    4.48331733350003
C          -7.73119842423428    2.13714771125871    4.30012733707104
N          -8.57307631716717    1.36712698942862    4.17466721085636
C          -7.29931309879012    4.43021109372863    4.45349335831977
N          -7.78891031074459    5.46683571858929    4.39358534865731
H          -3.32166937390492  -15.92851347346007   11.84491710164589
H          -5.62610488449512  -19.08602119463969    8.79681195671509
H          -4.05376182417363  -14.04717598522886   10.48854763018041
H          -6.38182011455774  -17.17016462314326    7.37843375757008
H          -6.17518502436830  -10.94867570826988    6.54909156085415
H          -7.96955351050661  -13.73447288470148    4.40824624369129
H          -8.63581170773350   -8.85877507590599    1.92419954320211
H          -9.41897944171085  -13.80578409074363    2.07575307799619
H         -10.08198359718942   -8.92467028723597   -0.37940911823626
H         -11.95651602496239  -11.56776566920028   -2.62069849233070
H         -12.93260441812215  -10.21472407591515   -4.52079902440238
H         -13.08568995550700   -7.80455689086159   -5.41258719910724
H         -12.87442473485402   -5.37064806419804   -5.72923486777858
H         -12.26801190086801   -2.87976018030954   -5.49322224282293
H         -10.97642689464668   -1.28459807487855   -4.01321081878130
H          -9.61556621632450   -3.53551650679301   -1.07989924720465
H          -7.72635154131405    1.54931022160537   -0.15655288530725
H          -8.08662827100622   -3.27235332057875    1.15687242968836
H          -6.17055024354574    1.80130111194646    2.09548692519804
H          -4.52267960873587   -0.47457188936515    4.76881734110941
H          -1.51399870224760    3.29437577146542    6.84636056014099
H          -4.16127007808289    7.89318345991471    5.20062765193789
H          -0.43061754372957    5.47447680923521    7.39151989759476
H          -5.25283798736669    5.77545289955157    4.66756980390122
