100
 SCF done       -196.697816038410          0.000725951301
C           1.95174032697332   -2.38332754724112    4.99259010266972
C           2.25436460716679   -1.45791770764808    5.94362758665284
C           1.79874396182152   -0.17663044376957    5.57601868315318
C           1.15328072883021   -0.17543921955658    4.33446858699970
S           1.10689670428243   -1.72775402439695    3.62734154181784
C           0.72655627973162    1.15270839058334    4.04515707511435
C           1.10646490444811    1.98284689852655    5.10573507223029
C           1.79364984230633    1.17376613647322    6.10652952864945
C           2.31507987223763    1.60246366304090    7.29204650135311
C           2.24477034669246    2.95004624494225    7.70308206040997
N           2.19432115891290    4.04398144521702    8.04350625570679
C           2.95846889365709    0.72579269141110    8.19048496287784
N           3.48121214786067    0.01723563368887    8.92500791819068
C           0.72869089430008    3.31493961358507    4.91830988487031
C           0.06295490613634    3.49903540439234    3.72283308322112
S          -0.09677940601837    2.00369871605542    2.81407481779833
C          -0.47446086255087    4.70701806625258    3.20395241240403
C          -1.16486702913756    4.88337135728054    2.02583934584311
C          -1.55570261266127    6.21202368179096    1.84667508446575
C          -1.16344074775880    7.06085634409790    2.88626348852138
S          -0.29738766874951    6.20396963956047    4.10678139991153
C          -1.57729826313731    8.38143162907332    2.67921244610173
C          -2.28654291067149    8.53282967432838    1.48376015916199
S          -2.44296663992945    7.04085651151278    0.59853814616163
C          -2.72281537398557    9.83849125400500    1.24773852112317
C          -2.34866525050674   10.69361139305049    2.26040627800408
S          -1.44403084627601    9.87906447706488    3.52207311795268
C          -2.61795159455566   12.08952840990106    2.36231522122543
C          -3.37367712090913   12.85828310799692    1.52258853049895
C          -3.43947481832773   14.21973033732131    1.90400218802776
C          -4.15464609467813   15.26113544412213    1.27863876909569
C          -4.87372961381112   15.04499893128871    0.03964569510547
C          -4.46905474482609   14.34889503207842   -1.06420321969129
C          -5.42081151048696   14.34925718132058   -2.10375345319806
C          -6.55508641607426   15.03620433335272   -1.79949193256830
S          -6.46370146258888   15.71429904034166   -0.20652337041221
C          -7.76411193249225   15.24799549166688   -2.63704790092754
C          -4.11446544539988   16.50092016097314    1.90459411720234
C          -3.38602820455486   16.75334142203365    3.09273322016548
C          -2.67650995626620   15.71013485516951    3.72200159294769
C          -2.71327315059579   14.47119631197459    3.09387063215657
S          -1.94666030782700   13.02168984078600    3.68254176542066
C          -1.96825615516357   15.92545270065041    4.96712588952030
C          -2.38316056313969   16.62623864010282    6.06440144754696
C          -1.44487468771655   16.62292610170644    7.11597069858958
C          -0.31061560981178   15.92905980854811    6.82764651199390
S          -0.38530499532773   15.24814561724956    5.23491985103990
C           0.88740347546278   15.71492913704851    7.68025513769058
C          -3.44094038996005   18.11759762004086    3.46609370934275
C          -4.19067777208950   18.88729788036587    2.62171439999715
S          -4.87453052890687   17.95145158524748    1.31058559273889
C          -4.44108277744525   20.28779959978865    2.70657370503959
C          -4.01325011632299   21.16134179187224    3.68162509155629
C          -4.44119489794198   22.46727746698503    3.43184222493799
C          -5.19931587623611   22.59985858240551    2.26447334124635
S          -5.38800883312103   21.08480691776055    1.46479833141041
C          -5.60291688677155   23.92089796429816    2.04148519649912
C          -5.15183111158978   24.79004172443261    3.03958824564941
S          -4.22343312460765   23.97901581475568    4.26954099798779
C          -5.53017108081028   26.11976088461924    2.84209503950660
C          -6.27164048739212   26.27594218308575    1.69247074232913
S          -6.51173170151128   24.75882671821494    0.83918498153947
C          -6.81578966670446   27.47755776609771    1.16594565345894
C          -7.55487919812484   27.63483625545851    0.01034951845788
C          -7.91643582560419   28.96781322526168   -0.20074388695134
C          -7.44913183359305   29.82599872614200    0.80099073200910
S          -6.56492127178285   28.99986316721118    2.00661713873497
C          -7.86506403565161   31.15283469729654    0.49071248611416
C          -8.59193957400146   31.12495205631906   -0.70471157228245
C          -8.65259181118005   29.75651151067045   -1.18283350830752
C          -9.26618654709262   29.29727745681583   -2.31143460905098
C          -9.95180946097294   30.15586839756855   -3.19605543131227
N         -10.51303571802301   30.84833440895885   -3.91768215191028
C          -9.25659757020844   27.93386725525223   -2.67305789336624
N          -9.25628064185765   26.82692832155384   -2.97236419440882
C          -9.04268484112477   32.40290843942966   -1.08956511513868
C          -8.65615928124702   33.35452806022417   -0.19658729936635
S          -7.73676861466341   32.72820694174450    1.13382317112671
H           2.17276512948694   -3.43173613065386    5.00069405202622
H           2.77517492828575   -1.68703169081903    6.85525736505388
H           0.91869892072151    4.11910788061097    5.60623797049289
H          -1.37476324775517    4.08587491709475    1.33667744313663
H          -3.27972104240180   10.14225358659738    0.38179042671835
H          -3.89595355538706   12.46032658578212    0.67312545623434
H          -3.50009116931028   13.88928182178965   -1.14655013837876
H          -5.26521046492626   13.85733661343437   -3.04778860320218
H          -7.65574903967811   14.72753167817250   -3.58560401587677
H          -7.91288902976722   16.30963381206409   -2.83322503791571
H          -8.65411850286332   14.87630377032292   -2.13007584998439
H          -3.35058018496979   17.09126888269353    6.13332749838930
H          -1.61006755601892   17.11726936452586    8.05710200406035
H           0.75380857233193   16.20780981296478    8.64024261985218
H           1.77924129245016   16.11617274333682    7.19935798452196
H           1.05190303347092   14.65123368282631    7.84995496095600
H          -2.91528155914208   18.51647705813637    4.31308184990564
H          -3.42185981238993   20.87085993425254    4.52908197784932
H          -5.27747125241216   26.93168012459513    3.49932114790389
H          -7.80682218384104   26.81149572062573   -0.63359830733810
H          -9.61784198369202   32.61158616500781   -1.97299881507470
H          -8.85326687050303   34.40718841766441   -0.23004207976988
