88
 SCF done       -168.545170629907          0.000207549509
C          -3.49832308808825   -1.41087804018101  -10.07751496627121
C          -2.40076634827509   -1.46885298385215  -10.88978715035642
F          -2.24196216824711   -0.57156650867161  -11.87301402508536
C          -1.42512572735785   -2.46834270388454  -10.70629086398348
F          -0.35819298462317   -2.50165751207522  -11.51806586498558
C          -1.56048473830393   -3.39714720873601   -9.71271957091452
C          -2.68063562103025   -3.36448833946449   -8.86009288896616
C          -3.66763021163202   -2.35387373839747   -9.04406624653697
C          -4.80151456413467   -2.30150883031122   -8.20057795853882
C          -4.94474459630825   -3.23251522866515   -7.20639858315691
C          -3.95590447905372   -4.23989879836736   -7.03252629458423
C          -2.84968552338676   -4.31436388483263   -7.82762148819231
C          -4.34828216831972   -5.12164386563303   -5.91305873292110
O          -3.72126813391269   -6.07551169042838   -5.49811575594531
C          -5.64503864342472   -4.59870650774546   -5.42914578589820
C          -5.99096852184516   -3.43019704291595   -6.20374160329654
C          -7.08954785947833   -2.61983624972385   -6.04325137112281
C          -8.09534834302004   -2.77747528835855   -5.06867997199562
N          -8.95307935010794   -2.82813341312097   -4.30566542139590
C          -7.36032534581330   -1.48906081159156   -6.84023968194402
N          -7.64183985306128   -0.55831628434416   -7.45143775611307
C          -6.39656454062901   -5.16989422895140   -4.42658619401013
C          -6.04145174362148   -6.31139760653151   -3.69870725141988
C          -6.87220764469704   -6.84048751371816   -2.73867784375872
C          -6.57687690104063   -7.98507905059058   -1.99507126203903
C          -7.44408361559163   -8.51490004415532   -1.06411315328045
C          -7.18878594397059   -9.65807332562689   -0.31561643944037
C          -8.07544664709983  -10.20128464839206    0.59759646664009
C          -7.88744833285031  -11.35445816694425    1.38626256582747
C          -8.94833265339815  -11.65957448760185    2.19341935223860
C         -10.02443517812084  -10.75997664694549    2.07672730234576
S          -9.65180776516135   -9.50984539395793    0.91842836805961
C         -11.24576425293264  -10.79503649615607    2.73991193965796
C         -11.68995008186019  -11.73566275315182    3.68835984822453
C         -12.95675981038148  -11.49889343911946    4.14465899576331
C         -13.57135820136073  -10.36300453947504    3.57848083340302
S         -12.47791060372562   -9.59560577906537    2.44620559078026
C         -14.84611838574387   -9.88999940307223    3.83167204024410
C         -15.39807091687683   -8.76535146636013    3.22677397293862
C         -16.68083463694683   -8.31858524704288    3.45348124723879
C         -17.20510958239218   -7.18979638632754    2.81484498092525
C         -18.49300603964139   -6.71554058533729    2.91879892831599
C         -19.48012248211468   -7.21378231781355    3.78003857255577
C         -20.80824503778248   -6.86499467404067    3.80008499836728
C         -21.61842128708571   -7.11222846438208    5.01612219594208
O         -21.31120331436596   -7.79622477936456    5.96806712598264
C         -22.84586925076940   -6.30735076321347    4.83742634050042
C         -23.87688586741440   -6.10687898066077    5.70820994491892
C         -24.94495363621471   -5.26319797092508    5.32653697258210
C         -24.91750490698877   -4.63681509449939    4.04719063916978
C         -25.98151794157367   -3.79139764173963    3.67509460370684
C         -27.02615666976240   -3.58121053979963    4.53104061464916
C         -27.05353594779841   -4.20296387051154    5.79481576533990
C         -26.03507305327370   -5.02638940012560    6.18595216973038
F         -28.09067336765649   -3.97905901043357    6.61461787347791
F         -28.03825170274356   -2.77828649903837    4.17421510097746
C         -23.83826725379057   -4.86929276502352    3.16294647049657
C         -22.82105756163444   -5.69879668716061    3.54978130591095
C         -21.62009565817375   -6.15219705468894    2.84792855019077
C         -21.43087363053659   -6.09387842774068    1.48820121719857
C         -20.43389873109772   -6.81545004891792    0.80012738164183
N         -19.68111615092516   -7.42846362078414    0.18705180918815
C         -22.28747904693810   -5.40373802632742    0.60799375557531
N         -22.94060762305273   -4.83784253958603   -0.14824471280415
H          -4.23615481221654   -0.63894573118850  -10.23128526768744
H          -0.80475623641133   -4.15638190388869   -9.58547698146445
H          -5.52945644868026   -1.52456959109021   -8.36796307960891
H          -2.11436196736830   -5.08929880836621   -7.67273804150825
H          -7.34793810822659   -4.71670183653494   -4.17892017193189
H          -5.09487789496549   -6.78702431361501   -3.90938545929265
H          -7.81932012394472   -6.34866381637421   -2.54878908971946
H          -5.62905017239004   -8.47751451942860   -2.16916857336104
H          -8.39319137313495   -8.01644278454500   -0.90530839285882
H          -6.24404452548749  -10.16887696650527   -0.44875350271033
H          -6.97878662426681  -11.92786411505579    1.33673955668026
H          -8.97766036986851  -12.50376731635574    2.85823170351276
H         -11.07636145375639  -12.55771760591530    4.00964801479313
H         -13.46473368196328  -12.11086052684450    4.86875481867617
H         -15.44421495210429  -10.44575290071117    4.54211871970664
H         -14.77836714762317   -8.22091782789466    2.52412537746521
H         -17.30392728327607   -8.87661080376602    4.13805883598776
H         -16.53972939231348   -6.66457234054702    2.14152512601636
H         -18.75497201992842   -5.86796424280292    2.30025924453088
H         -19.17813413329924   -7.87078182318637    4.58753085104463
H         -23.87968625930120   -6.58539593215947    6.67573975147142
H         -25.97765089521702   -3.31027886256903    2.70949965979554
H         -26.07092055598811   -5.49469958917526    7.15710443973955
H         -23.84133169914831   -4.37818452487242    2.20300545894514
