90
 SCF done       -180.425639973377          0.000691692534
C           0.26923114147254   -1.45251489584852   -3.59231683618024
C          -0.32640902542163   -0.65196316985449   -4.51726869330003
C          -0.57412918506673    0.63491971977132   -3.99997403730860
C          -0.14887446485149    0.76828797223859   -2.67284238467462
S           0.54619547494291   -0.66905209540735   -2.06906478312151
C          -0.43535257075992    2.09203424634570   -2.23444466917308
C          -1.04001885393556    2.78810055984932   -3.28718514065218
C          -1.14840269546220    1.89295061002646   -4.43503867399206
C          -1.67993788484075    2.18658340196926   -5.65682722292055
C          -2.21186072067413    3.45673342603415   -5.96262260061418
N          -2.64751359404306    4.48583180065217   -6.21990712589599
C          -1.73288953034765    1.23881694467691   -6.70005482475548
N          -1.78129060307883    0.47056446530390   -7.55016357535609
C          -1.36114660872186    4.10639692327637   -2.95846823141488
C          -1.00428829837961    4.41825011635021   -1.66052947110444
S          -0.26003665734284    3.05704187238762   -0.83404104953817
C          -1.17375044281263    5.65823459539669   -0.99275437581750
C          -0.81658923460783    5.97346213755826    0.30200077181205
C          -1.13072298285873    7.29885792331621    0.61196394119749
C          -1.73194545844081    7.99934407739430   -0.45770178818369
S          -1.91171398243939    7.00529295711237   -1.85355530708264
C          -1.97408194209547    9.29352870092522   -0.00260789026296
C          -1.51363068563507    9.34806413739132    1.33228804618178
N          -1.01531089230031    8.12549659846005    1.69864764858762
C          -0.41680931027644    7.79060481930326    2.96021214116409
C          -1.68011168016634   10.60119258779147    1.92706787863132
C          -2.26426694997635   11.50011082008052    1.05841319806746
S          -2.62288785266236   10.80376832551401   -0.51889742818918
C          -2.57244629331539   12.86315465368597    1.29614139804066
C          -3.15381989153574   13.75654011893750    0.41734875851359
C          -3.29259619939537   15.02782273611336    0.97527194560422
C          -2.81415340898712   15.10582011012266    2.29272589860242
S          -2.19626582510030   13.60926277961573    2.84543379904513
C          -2.98018681734892   16.43446684085984    2.75693302267813
C          -3.56327053376394   17.19773805216180    1.73314617083273
C          -3.78638315407274   16.33800814919042    0.58138385055473
C          -4.34054174359746   16.68663008427098   -0.61471090263847
C          -4.78901909380794   17.99715270592063   -0.88322572429297
N          -5.15720330124836   19.05943344500485   -1.10861010868145
C          -4.50595227052738   15.76055555691188   -1.66620397911381
N          -4.64528827204154   15.01349497498339   -2.52467542296907
C          -3.74732272567715   18.53527314576643    2.08521260506398
C          -3.31043557703736   18.80042310972966    3.36862991167250
S          -2.66608183665656   17.36494145704513    4.15783648629768
C          -3.31543977753782   20.04976063606234    4.03833037928809
C          -2.89521968043104   20.32215664762361    5.32408752562342
C          -3.02123331457452   21.68004649933056    5.62619360399402
C          -3.53946391523576   22.44970055912882    4.56109162832412
S          -3.88301815030664   21.47926255783689    3.17944111322644
C          -3.58360777881861   23.76901324033460    5.00617896411474
C          -3.09344168211276   23.76830240367291    6.33200047376865
N          -2.75816311412894   22.49167582492036    6.69840190815185
C          -2.21520705544371   22.06449991856763    7.95738147072078
C          -3.06345081429283   25.03902971230319    6.91216300065642
C          -3.52045218561779   26.00547784006773    6.04032492901414
S          -4.00763534094019   25.35382298714408    4.47940228508839
C          -3.61463958413785   27.40233018302808    6.26905511857052
C          -4.02083275893775   28.37522449245694    5.37597539929889
C          -3.97411726717632   29.65287853950960    5.93685214875788
C          -3.53385915425689   29.65299872649065    7.26520544697179
S          -3.17218023242963   28.08018243648807    7.82943762187104
C          -3.52082076542504   30.99588338540851    7.73747903896090
C          -3.95087508216179   31.83726894283237    6.70453234064477
C          -4.24867627068644   31.02982858847256    5.53785729863882
C          -4.68504311719973   31.45895135018673    4.31847697348530
C          -4.91338099063739   32.82267802134817    4.04011499421930
N          -5.09786369155754   33.93015294738225    3.80611967553468
C          -4.93392301617655   30.57107470621275    3.25103500275198
N          -5.13952595680490   29.85748670726901    2.37735284893853
C          -3.96709734510347   33.19318172328190    7.08696896525184
C          -3.55822861563317   33.35046924309275    8.37510688804469
S          -3.14197346636528   31.86000158896757    9.15994544573972
H           0.57239412788395   -2.47422001015940   -3.70274074196713
H          -0.57222314038834   -0.97111611961776   -5.51354365820532
H          -1.82940586735567    4.81643462980431   -3.61600594937240
H          -0.35078286482731    5.26685909360683    0.96511833444474
H          -0.84716520187374    8.41497047144697    3.74174909444524
H           0.66601143833140    7.94715923805089    2.93877915635810
H          -0.61582069803799    6.74458442841265    3.19124904886204
H          -1.39398140177853   10.86466999180084    2.92944328063870
H          -3.45098055758033   13.47815069694052   -0.57762262492781
H          -4.17198175476731   19.29253964929278    1.45118069024371
H          -2.51851856142290   19.56494841937865    5.98784122737854
H          -2.12317124029444   22.92430070508361    8.61671802810988
H          -1.22824081339148   21.61662626024203    7.81673329596959
H          -2.87068110241692   21.32589583281773    8.42514015983549
H          -2.72670347370655   25.27018059871465    7.90687755694029
H          -4.32816398489048   28.14623925752096    4.37153955139589
H          -4.26259820359869   34.00719738979095    6.45065019237818
H          -3.47028414099650   34.26170156010201    8.93178564298234
