87
 SCF done       -186.103886104238          0.000654223418
C          -0.37835248039883   -1.12217821271609    5.36378427745091
C           0.17620460181072   -0.01888323840637    5.94029081225402
C           0.04661729169718    1.11030821901916    5.11024764474230
C          -0.61605751926742    0.81878589426284    3.91342505269012
S          -1.07284044041086   -0.82294886866280    3.80788376416084
C          -0.70536173378753    2.01212172605218    3.14003200158641
C          -0.09185190378009    3.05263644467242    3.85646669648271
C           0.38154341302733    2.52525854935860    5.12933327192973
C           0.96747333356513    3.21813497874790    6.14643846835508
C           1.16433096350592    4.61622533918732    6.11012204097475
N           1.30241403797541    5.75381744145190    6.12364778621030
C           1.38279628566137    2.58591987258327    7.33832629182485
N           1.72527176241767    2.07728428808453    8.30707405270482
C          -0.09592003349470    4.26537374585389    3.16593711176858
C          -0.72641343452526    4.14539952631467    1.94400481366318
S          -1.31232454785248    2.51820905692237    1.63394646004402
C          -0.97020453535584    5.13136450492923    0.94699357650999
C          -0.63766890756461    6.47458867815938    0.82103847900603
C           0.15945055934085    7.30589575898041    1.74314002559250
O           1.13096514317629    6.90948668071241    2.32177441973619
O          -0.28139930484837    8.56731627457426    1.91009723930097
C          -1.24935709900201    6.84667143261892   -0.41933075026061
N          -1.87982065277528    5.81902596007401   -0.94182017549008
O          -1.72199628999428    4.77347207886557   -0.10818970676146
C          -1.22560835390733    8.10580224763775   -1.12021868440715
C          -2.19506548752174    8.55247319830291   -1.98761208644150
C          -1.86025109334475    9.79230684733661   -2.54228496240019
C          -0.60899965077501   10.25993758892199   -2.10735488282550
S           0.14345844036327    9.19819809412300   -1.00618478564797
C          -0.35911270544994   11.51881029141505   -2.71652598060028
C          -1.45921834258713   11.84951996483991   -3.52218348787662
C          -2.43762817486546   10.77225086955485   -3.44410869976281
C          -3.64241252920696   10.71114729108537   -4.07989275948178
C          -4.08905667941187   11.74238615602424   -4.93310762524688
N          -4.45079866754349   12.58142937518740   -5.62579665680925
C          -4.52532054392242    9.62145696743541   -3.92220823364112
N          -5.25083898037199    8.74363958201159   -3.79222146033808
C          -1.32033563254313   13.08478646372800   -4.15210162555599
C          -0.11520077368652   13.69236250420916   -3.84602928310060
S           0.85751923750498   12.71511507345766   -2.75264830214397
C           0.35650887055697   14.95843173610784   -4.30363710479988
C           1.65062896025730   15.38626499847720   -4.11464742880617
C           2.14869769592471   16.61396832282298   -4.53970924281985
C           1.29110903787473   17.58944088091707   -5.21329956908399
C          -0.01102424538199   17.37603854356181   -5.50986491337437
S          -0.85009975519267   15.93283413913736   -5.12773164587845
C           2.12508715430405   18.71113382634219   -5.47168448717680
C           3.42307723120049   18.46302626487249   -5.01680849684459
C           4.27677744315336   19.56363264773328   -5.25838122466617
C           3.61937158823924   20.58209330245608   -5.87333841635977
S           1.94977540878765   20.26088218091762   -6.18773730291073
C           3.45893927849340   17.13975900020681   -4.43498972775346
C           4.55912302681607   16.45107031344035   -3.90006351863452
C           5.84686441220856   16.91546486859924   -3.86969326913349
C           6.90441097948662   16.14964560769512   -3.36337935097055
C           8.21760957681878   16.56044487482442   -3.33489705244786
C           9.35068379474568   15.80320172336049   -2.85448280819457
C           9.34882918651947   14.51958972427282   -2.36698918935698
C          10.50190414286580   13.84015479750003   -1.92242819488115
N          11.39890688680001   13.22956804584994   -1.54670774076604
C           8.21632583361007   13.68871325435067   -2.24628912301968
N           7.34863488345425   12.94608389635597   -2.12010689597038
C          10.53754308036821   16.64764162510524   -2.99535661478890
C          10.15480534974113   17.87771000016691   -3.55657473522660
C           8.69488256058999   17.87940263236466   -3.79794480092419
O           8.05074386187568   18.79259462975008   -4.27591926718575
C          11.06833223782639   18.87935503769266   -3.81013918134463
C          12.40184592083961   18.64992621580292   -3.49468210042428
C          12.79255855774568   17.42975009326657   -2.93463154155895
C          11.86732599600606   16.42219886095189   -2.68156053764079
Cl         14.44415952838236   17.15833348610363   -2.54718127265482
Cl         13.57123732243459   19.87196507799849   -3.79503774415495
H          -0.42414962373438   -2.11589178162848    5.76257729069050
H           0.65139083151738   -0.02435803398068    6.90398651539367
H           0.35003610477174    5.17934612692525    3.51243403822779
H          -1.10942678818046    8.74749059059702    1.44539497584657
H          -3.09173805655114    7.99445111637985   -2.18357032928503
H          -2.04762306543864   13.52550757995057   -4.80970065258827
H           2.31652650927232   14.70404369090504   -3.60247780653109
H          -0.61830702668322   18.10662298349598   -6.02028760795058
H           5.31776138493710   19.62797333539780   -5.00128778046357
H           4.01981502407549   21.53108686044649   -6.17189368883390
H           4.36997927151400   15.46110564726691   -3.50183450908283
H           6.07813902367791   17.89005223202939   -4.26136481148243
H           6.66019293879900   15.16789808393879   -2.97879695887587
H          10.75267799611717   19.81572557851192   -4.24253778018996
H          12.20744109692096   15.49592673374934   -2.24855053337886
