79
 SCF done       -151.630781572193          0.000453654368
C           4.10376763334746    9.54452139204050    6.32131192819535
C           3.40823321682916    8.45573107490076    6.75180213062150
C           2.56104400968332    7.95877275106088    5.74266789590952
C           2.64436107925179    8.70021397213548    4.56113184762469
S           3.75004018111006    9.99378156274473    4.68572492852313
C           1.75910050824105    8.12883151421195    3.59759717899298
C           1.12246710439653    7.02606437555835    4.18575547486548
C           1.60309289324296    6.88143603275419    5.55184931458380
C           1.23450977393078    5.93553542706150    6.46334579381119
C           0.28934860118001    4.92886627792737    6.17408986612082
N          -0.47681410149076    4.10303185704867    5.96013418914316
C           1.77514127239289    5.89657639996190    7.76554403940647
N           2.21032950363828    5.85837935969236    8.82601569945792
C           0.22997736215328    6.39213160008148    3.31357854009629
C           0.20120239873874    7.01504548971027    2.08860051793580
S           1.26932960798096    8.39092041713486    1.98646688071071
C          -0.57073778524988    6.68291540512943    0.91893044744601
N          -1.38804868225728    5.63041132483297    0.98082920462926
C          -2.07387532366154    5.36107726774631   -0.11761344727066
C          -1.96403986289105    6.11403750278499   -1.27247733138267
C          -1.07943682514569    7.20419141035127   -1.24294875159501
N          -0.39017763911248    7.47142189505872   -0.13223837670694
C          -0.88639076112613    8.05846273408678   -2.38819881475018
C          -0.04383980600884    9.11154803702992   -2.35663329324050
C           0.21556921662051   10.01259018893353   -3.42396120169853
C          -0.29772169399481   10.02891962516963   -4.70605258958832
C           0.21132378508335   11.09288522868526   -5.45316950359016
C           1.12462901315805   11.90142754613432   -4.73895635712654
S           1.34843700035017   11.33020285979508   -3.13267586857372
C           1.53258599933081   12.91243290546242   -5.61071739860348
C           0.85407915857566   12.69042440894292   -6.83103890460725
N           0.05487661191926   11.58231830798935   -6.72328470091325
C          -0.78020226608572   11.01617940477472   -7.74494932913859
C           1.15627334322804   13.64132803324938   -7.81121659887345
C           2.05392153629122   14.56798121185354   -7.33864705518482
S           2.55300969825238   14.29997341210116   -5.68631578980084
C           2.60285719878844   15.70376267395940   -8.02859316485090
N           2.19184463890123   15.94657292101948   -9.27756971090663
C           2.70881339644914   17.01072851594720   -9.86604043451092
C           3.62733396112968   17.84107320870055   -9.24640714950497
C           4.00902854076761   17.49820232090305   -7.94126433381479
N           3.48360465306391   16.42708074909219   -7.34909378444598
C           4.97753424434781   18.27413380720322   -7.20006161649605
C           5.39065354524395   17.89628583564497   -5.97475095602075
C           6.34814693808675   18.57818244306455   -5.17300539291774
C           7.00990620674536   19.76878156593627   -5.40911734279469
C           7.88841580967038   20.09626677440854   -4.37488372637028
C           7.89703253638101   19.14529057182770   -3.34430178834641
S           6.82309135053449   17.85799492226457   -3.64164856469089
C           8.82865036598398   19.56798590095124   -2.35093325476962
C           9.39767137665063   20.77965521383853   -2.75718395968757
C           8.82766755642604   21.15844721453796   -4.03769085431705
C           9.10490134531003   22.27395056414116   -4.77285781563651
C          10.03324243884169   23.24609944994355   -4.34529813964988
N          10.78677559920531   24.04002881188824   -4.00308970433822
C           8.47938234272992   22.53099011858086   -6.01053129202725
N           7.97341025296575   22.74282008293011   -7.01779652370089
C          10.33899007127933   21.26899481390454   -1.83107134434985
C          10.46206217218408   20.43386103695429   -0.76269061088312
S           9.44176295169376   19.03597544609939   -0.85012038847913
H           4.81753101527022   10.12638436609288    6.86930561013555
H           3.50249756285005    8.03838911089193    7.73754910280114
H          -0.37129517485036    5.52969357179726    3.53439566804507
H          -2.73411304582435    4.50490402732736   -0.05725129966492
H          -2.53096520257745    5.87849079777633   -2.15850277408789
H          -1.45377598667363    7.81181000931900   -3.27364808616750
H           0.48722512467914    9.29581148010961   -1.43221721063872
H          -1.00215666797700    9.30408788265274   -5.06964355566699
H          -0.73585170904220   11.64623538703583   -8.63012390792224
H          -1.81578111303153   10.95692956990702   -7.40168936805558
H          -0.44014077109685   10.01069350460562   -8.00691446219388
H           0.76593623777198   13.68489127228966   -8.81065752643700
H           2.36679436465777   17.19855545512873  -10.87648741620902
H           4.03582566384719   18.70639051932668   -9.74206534951505
H           5.36042288811837   19.16096070417101   -7.68313745127648
H           4.96732701014054   16.98924449458373   -5.56353485093287
H           6.85338183153982   20.36410689639412   -6.28937965554668
H          10.89491378021625   22.18181379437327   -1.94279580028288
H          11.09962893837649   20.54869397836675    0.09087962201057
