83
 SCF done       -175.182257508434          0.000752769942
C           0.57175405574046   13.77061412936825   -6.19129430681653
C          -0.28761600882467   14.15845362216790   -5.20771714998818
C          -0.54215610514228   13.10580547930732   -4.30848259463509
C           0.14624088875233   11.93567107603354   -4.64776918237260
S           1.09406755725557   12.12622748087318   -6.05373109480263
C          -0.17056576476373   10.92771232994930   -3.69008382331014
C          -1.05691394158725   11.47302450948677   -2.75089362224305
C          -1.32218487080444   12.86029044994748   -3.10828762888990
C          -2.13641347746868   13.73505727225660   -2.45073005624250
C          -2.84315368817249   13.36844717963214   -1.28596705798564
N          -3.41759068904708   13.07147521334331   -0.33900813134860
C          -2.32686928758147   15.06250614331878   -2.88946231729024
N          -2.48650971052078   16.14205202038641   -3.24118611358111
C          -1.43327892990233   10.55664728453099   -1.76731212327230
C          -0.83898301378530    9.32650400830593   -1.96108332347356
S           0.20057128841320    9.29519808347706   -3.37042890045322
C          -1.02114169627791    8.15410445309186   -1.15072883627586
C          -0.44290280492080    6.94989719429247   -1.40540879994464
C          -0.70619290816050    5.83783057628074   -0.54874019824556
C          -0.12007427447472    4.59370903399697   -0.75606560827923
C          -0.39127580105216    3.49168986318727    0.06175204762231
N          -0.60419026902802    2.56375343966532    0.70870619454653
C           0.78121075158294    4.36054131822375   -1.80109747735092
N           1.51829390312064    4.15073269644622   -2.65915126171051
C          -1.59708726802593    6.07650143046285    0.52984264203481
C          -2.14175615405212    7.31798130382852    0.73865004335690
O          -1.84367672210068    8.35917247824933   -0.09574210267504
C          -3.01015867615428    7.71184679368893    1.78975403742989
C          -3.61300777760655    6.92750559510163    2.73798475837241
C          -4.43639870713237    7.41157637968815    3.79414204602311
C          -4.93581324540190    6.44544218023739    4.61138525904718
C          -4.55121239585653    5.13641811472982    4.24431966507612
S          -3.51848655807800    5.18411900387708    2.82827608203623
C          -4.86002557373034    3.92185172633533    4.81819906838576
C          -5.59736973426271    3.63309071841575    5.99296610712825
C          -5.67526080631548    2.30610197625899    6.27505191288867
C          -5.01633418885179    1.46152834001734    5.33633190267525
S          -4.29805928493953    2.44568110329296    4.07365148788179
C          -4.90183093828452    0.10104619092907    5.41341268316357
C          -4.25826683698770   -0.74016307044131    4.47457295767968
C          -3.85154705588457   -0.46664486446737    3.19076463454410
C          -3.21669857068236   -1.55340628633444    2.56036267444849
C          -2.64323698139696   -1.61715442068983    1.27826129045404
C          -2.03208357947483   -2.83129132404064    0.93375277232987
C          -2.01491004380461   -3.87772042737111    1.89444567060910
N          -2.54367209870619   -3.82429502878470    3.09613360326122
C          -3.12452032328364   -2.68744997021812    3.41286453046562
S          -3.87256345884199   -2.39793963874214    4.94307505824219
S          -1.21113844607353   -5.31167934053724    1.31749830826209
C          -0.93681645518116   -4.52961551885293   -0.21301335392662
C          -1.41211779143972   -3.26177817416971   -0.27813540063317
F          -1.32890014943621   -2.51079427605082   -1.38954659213092
F          -0.31661468932847   -5.18449790689410   -1.18734842271447
C          -2.74963108295748   -0.47989703812912    0.38362152041598
C          -1.79556531813059    0.11121900141401   -0.35141174846668
C          -2.19436938281223    1.07955585893927   -1.43486378531941
O          -3.26966132580213    1.61697301264331   -1.55368953561398
C          -1.01123246065246    1.14880870420653   -2.27335743682197
C           0.06081469973458    0.46631013328531   -1.70059542277434
C          -0.35132125805558   -0.08862504149784   -0.43093699621074
C           0.48242798398462   -0.55833473036168    0.54232169057794
C           0.08192113964821   -0.90035273189329    1.84859968256977
N          -0.18179385488663   -1.16949002654645    2.93280600467688
C           1.87423698304834   -0.67403353254216    0.33495467657542
N           3.00289600948996   -0.80171405661347    0.17728469494028
C           1.22883640483608    0.54172841366622   -2.48108125613673
C           1.00949543015606    1.25861409874938   -3.62016573677890
S          -0.59425139333295    1.86611822410103   -3.76776408782993
H           0.94088298675220   14.35848224000582   -7.00774099475668
H          -0.71112538278139   15.14362146247059   -5.13847149619617
H          -2.10387692191482   10.75516840257912   -0.95170000876666
H           0.21221136119180    6.82992232998011   -2.25383793389831
H          -1.81569336185757    5.26375038818593    1.19937864087134
H          -3.21961976397560    8.77248349266929    1.82676703062285
H          -4.62389812895582    8.46400742378011    3.91174409711530
H          -5.57277887196266    6.63435512896538    5.45685115036346
H          -6.02962994368487    4.41093658699323    6.59650700293139
H          -6.18288207602593    1.89407146274576    7.12922867558932
H          -5.30879841143930   -0.38083893642285    6.29202940634478
H          -4.01319716072559    0.47101197180648    2.69428117279865
H          -3.74736801570213   -0.06418510392418    0.27619907591648
H           2.17194467410054    0.09416606200041   -2.22793449310106
H           1.71902575085601    1.48516885368420   -4.39127554731625
