79
 SCF done       -165.511585393701          0.005638478192
C          -3.61713893852251   10.87190924199322   -7.87236714707600
C          -3.07319414533593    9.71328417189547   -8.33912287647331
C          -2.65411064462964    8.88362477790521   -7.28158585885633
C          -2.90085948747242    9.45145452839103   -6.02735965821619
S          -3.63643081112015   10.98831964466412   -6.14684966385491
C          -2.44932656312322    8.54990528309750   -5.02185057737581
C          -1.92401084864222    7.40934420952559   -5.64984739035971
C          -2.02527232390364    7.58685875565757   -7.09252898080443
C          -1.59167897211135    6.72751169962063   -8.05885577856001
C          -0.97379737873257    5.49691207802931   -7.74848210007984
N          -0.47336534478985    4.49670803490819   -7.49607807729608
C          -1.72908269316745    7.01465722367254   -9.43355752459104
N          -1.83916994528667    7.25251041523868  -10.54954908695633
C          -1.45592372813994    6.45605954283206   -4.74394048839184
C          -1.62090326941111    6.87542822888898   -3.43978069945147
S          -2.35984215708195    8.46192478518207   -3.32403128395953
C          -1.25189404519722    6.23240742746536   -2.21423292656831
C          -0.76065397211745    4.97056100274442   -2.09239179522883
C          -0.41673137319726    4.45405581276523   -0.80355551190362
C           0.03722921047549    3.16096721572010   -0.62767646757071
C           0.35533998620895    2.65259887409490    0.64190063669027
N           0.60018799699645    2.23365363794174    1.68165819372097
C           0.18622428886459    2.27765313085161   -1.71020528678225
N           0.30095469028369    1.56443660693834   -2.60214073267984
C          -0.57348990391848    5.36198783633019    0.29856218015674
C          -1.06585210386936    6.60476084317561    0.08878928768267
O          -1.43797907199653    7.04240773252630   -1.13955172190700
C          -1.25627748260476    7.63474590486259    1.10897619169931
C          -0.60962155345040    7.67318888462289    2.29757046568376
C          -0.81120366541635    8.79081032182532    3.17586176892745
C          -0.14598714579172    8.90752499381673    4.38672841600849
C          -0.30577148363498   10.04136738783984    5.20054206817860
N          -0.43362663374058   10.98412038935790    5.84689102889062
C           0.73969274533918    7.92214896641825    4.84841055477582
N           1.46233804984301    7.11194093760844    5.22246046960255
C          -1.71749731475718    9.78621551674621    2.72119571832521
C          -2.35398391554921    9.67187028377466    1.51281975128623
O          -2.11750954785138    8.59567531122929    0.70310130956008
C          -3.31019403736292   10.55766897180261    0.95566969847859
C          -3.71685747821718   11.78100220574287    1.42158025640286
C          -4.73597233924568   12.57678559076994    0.82729293177027
C          -4.96423808224896   13.76317798027487    1.45204504946530
C          -4.12666762358329   13.98956276041087    2.56753038201996
S          -3.05626433086233   12.62193828338579    2.80554920602900
C          -4.05820904844022   15.08582219512852    3.39994935525205
C          -4.86165689078315   16.25273528717189    3.39655680799652
C          -4.51513972795210   17.15669872690407    4.34843775436175
C          -3.40724237967919   16.77057728985357    5.15547815242220
S          -2.85201119656655   15.18143348799102    4.66078313868670
C          -2.84626538219723   17.53692759677003    6.13817254367568
C          -1.70934402946841   17.24553895290811    6.92733223726230
C          -0.90681302180938   16.13075774208798    6.97162604801506
C           0.17995384437945   16.25675598179230    7.86450474331177
C           1.20674836146120   15.35993694784228    8.15910762365093
C           2.17041291902034   15.77217105931881    9.06765155012869
C           2.05467636288250   17.06297280638458    9.64959667486991
N           1.09038106523579   17.92019019615012    9.39318752686331
C           0.18728539310644   17.52205321094032    8.52250479390162
S          -1.14491593518263   18.50635550116437    8.03026952256060
S           3.35085294120772   17.41253444290168   10.75865097013339
C           4.04355678331718   15.83975313386935   10.43463063992639
C           3.33551127436735   15.09959673075413    9.54976654216818
F           3.67675584587358   13.86989917919449    9.14793566250351
F           5.16874056835501   15.48724724832666   11.04596527469796
H          -4.01501155191831   11.68597642918514   -8.44221152902026
H          -2.97862763144578    9.47597126469288   -9.38116941806750
H          -1.01507008684484    5.51494847924151   -5.01561672929160
H          -0.63572161375311    4.34834320634031   -2.96239750073876
H          -0.30757566887992    5.03409568586611    1.28935087012078
H           0.07963176783840    6.89552120177282    2.58031229951754
H          -1.90959721369970   10.62924265676610    3.36054487586409
H          -3.76699687847935   10.20666014459269    0.04011270843684
H          -5.26892563382865   12.23595702867649   -0.04244039161682
H          -5.69814585747896   14.48286451393170    1.13652362741531
H          -5.66700168386894   16.38391051430990    2.69720320868311
H          -5.00741132309851   18.10079929754418    4.50045540235400
H          -3.30518349929809   18.50020569574029    6.31850428031472
H          -1.07277264630849   15.23987334977828    6.39607434322100
H           1.25368516220687   14.38614538161435    7.69677245996093
