85
 SCF done       -154.397356158247          0.000867764710
C           2.64692959495080   21.63523941974418   -3.56398683116182
C           2.71150091907326   21.88496314233335   -2.22639812739277
C           2.55850095568335   20.70207830206251   -1.47836928845172
C           2.37908836130277   19.57698217209417   -2.28928455130003
S           2.39901075509999   19.96553440809311   -3.95086477792275
C           2.22586743126988   18.43126962335811   -1.45357199070926
C           2.31592616718059   18.84671130381653   -0.11544685099339
C           2.52445689534008   20.28659333295051   -0.08627335723981
C           2.64916437954879   21.08172692541052    1.01646607067378
C           2.59633415085736   20.56967269810059    2.32954483550381
N           2.55500108526599   20.17053486046494    3.40379514596984
C           2.83663011465757   22.47605686368723    0.92007628319157
N           2.98570341280284   23.61129048863470    0.84935415399407
C           2.16687739991231   17.78932160500133    0.78724567194210
C           1.96290687911373   16.59705844343216    0.13178474543057
S           1.95499121890649   16.75711454953701   -1.60811230303125
C           1.72146644815905   15.29292738444604    0.68549841589362
N           1.74371222760050   15.14994764653566    2.01303356329943
C           1.48460282955712   13.94245608953680    2.47863943071905
C           1.18859964937862   12.86741850655334    1.65440709126103
C           1.19410206475760   13.11209324916722    0.27571797444824
N           1.47388227140658   14.32731034042590   -0.19236271417424
C           0.88106076672985   12.08077270688621   -0.69094781493683
C           0.92533648242754   12.32062935594833   -2.01288632879685
C           0.57938715540733   11.37917873596311   -3.03079324241222
C           0.73738565205603   11.50575207307608   -4.39911559163106
C           1.32509329514540   12.68366204036677   -5.08826278601087
O           0.84483022051595   13.16136298721310   -6.07780380184534
O           2.43952047461440   13.19969761536314   -4.54069750419368
C           0.16225110929920   10.42287973064515   -5.12576637673758
C          -0.39853618270909    9.49321213392350   -4.29406796233693
S          -0.26174299842767    9.90395798477568   -2.63904014763729
C           0.17848711754270   10.28698582142879   -6.57714966090873
C          -0.95004719194103   10.01285117742007   -7.28193635509299
C          -1.00268362218597    9.86559461210698   -8.67931544010205
C           0.20884682293344   10.07993240091585   -9.48945336976633
C           1.43352325956433   10.33682302884606   -8.98407078085413
S           1.76544367935343   10.45840536724138   -7.30683830903516
C          -0.21865017791688    9.96870238575263  -10.84031308673949
C          -1.58770841925571    9.71102578566196  -10.87468847154544
C          -2.07179093582687    9.58009811657355  -12.19498015459714
C          -1.07938141780468    9.74070301879271  -13.10900558490355
S           0.47529676630687   10.05309592700177  -12.41199549116811
C          -2.08661193462881    9.62763488991352   -9.52500478828789
C          -3.45761106304564    9.36780392072110   -9.21427663624022
C          -3.92743092318704    8.82921882629243   -8.07200817622108
C          -5.31572090086846    8.61151860683684   -7.73343474770757
C          -6.36232240040134    9.17968124792092   -8.46155727294465
C          -7.66109850560339    8.93865503744014   -8.05279662817113
C          -7.94807726922200    8.13271620122848   -6.92406806240426
C          -6.90148273496358    7.57048234672637   -6.20196742382241
C          -5.61061241661082    7.81742978582423   -6.60743481939424
C          -9.37403166709162    8.10920648382437   -6.79700801630213
C          -9.88447703268565    8.90330704663860   -7.85517353420910
N          -8.83803007273821    9.39511344852144   -8.59747774756309
C          -8.91902104192434   10.24299414667486   -9.75173807624445
C         -11.25233378606478    9.08211229329909   -8.01057611768058
C         -12.09504634621335    8.46706715685970   -7.10493451729290
C         -11.60023549336522    7.68633626111087   -6.06221826334351
C         -10.24272986125806    7.50068597840998   -5.89961823315532
H           2.73030760099587   22.34005195206864   -4.36696938533382
H           2.85993822978698   22.86343733557544   -1.80771903593853
H           2.19578612388540   17.85893000964061    1.85892318369301
H           1.51138654624356   13.84086252489350    3.55609475208504
H           0.96422818911204   11.89095300726528    2.05109481777839
H           0.60048559878570   11.11044981955839   -0.30457239922563
H           1.21348467499738   13.31596692849395   -2.32854279655909
H           2.74516800903051   12.70869145001226   -3.76632238103979
H          -0.87730471148073    8.57639462860693   -4.57538594634725
H          -1.87457493219561    9.96605852214494   -6.72438340999612
H           2.30169785639151   10.47983129602365   -9.60810240694702
H          -3.09353581913814    9.37659768088207  -12.46097337597975
H          -1.15585018363837    9.69411448312329  -14.17788158082626
H          -4.14890009352897    9.60314532952550  -10.01346193559782
H          -3.21981249528464    8.47981966231782   -7.33239424444299
H          -6.16150866719197    9.80807005524935   -9.31467165220174
H          -7.10158544428378    6.95612863300866   -5.33682762237088
H          -4.78831155351145    7.38710978927618   -6.05313571427159
H          -9.95530658271822   10.51865881685425   -9.93034027237066
H          -8.53451121185970    9.72908595171388  -10.63771423841290
H          -8.33623689420650   11.15473923379586   -9.59603214337351
H         -11.65934022245645    9.68149924247003   -8.81163301800762
H         -13.16275613338808    8.59431584387507   -7.20786890428651
H         -12.29296017162657    7.22301724330255   -5.37550240883646
H          -9.85733133012303    6.89585252099883   -5.09249914874448
