83
 SCF done       -169.698910883313          0.007195598514
C           3.83765640034069    7.81823463729423    7.17893112601707
C           3.85826023480520    6.45611958857674    7.13792686976578
C           3.49414352804335    5.97673182817879    5.86645177805311
C           3.20617844693726    7.01154583483096    4.96838784075797
S           3.37665664094380    8.55446032368980    5.68393349374162
C           2.88173448749109    6.44152406626798    3.70402146037420
C           2.96507152444433    5.04341269741051    3.81535217432751
C           3.37169832256513    4.70627971297350    5.17246952844790
C           3.61016241626230    3.45851795182099    5.66518885505410
C           3.52322592793729    2.30743040059332    4.85392826513557
N           3.46721925555682    1.37924477520641    4.18337561468318
C           3.94905979533699    3.23135883310158    7.01744291549991
N           4.19076142940377    3.02980541298916    8.12021674504784
C           2.62434876119511    4.38605451091563    2.63423609034538
C           2.30998836337838    5.28244049117839    1.63524277417510
S           2.41357450578658    6.95169812655624    2.14510295633559
C           1.94753585397653    5.00499398342221    0.28108039627699
N           1.82656966166773    6.05000904918904   -0.53420006866528
C           1.45158515237692    5.76448715767707   -1.77768242067701
N           1.20210997412912    4.52615470042671   -2.22166843578021
C           1.38479499083623    3.56696071845705   -1.33794370641401
N           1.76170371201606    3.73023189280698   -0.08461168123346
C           1.28547978265510    6.85484123183458   -2.70403952036279
C           1.68862075902254    8.12748310795265   -2.39519352196211
C           1.50148991577506    9.22165251148897   -3.23379072999960
C           0.78754522374367    9.07875606232038   -4.50615868699971
C           0.34502220778304    7.89660525498159   -5.00137666215679
S           0.52310331581109    6.39159307640477   -4.20329582841758
C           0.72020561917699   10.39190975315368   -5.04017163823968
C           1.36623365203458   11.29529462179848   -4.18497347220132
C           1.31097401542160   12.61554623328540   -4.68656449726543
C           0.64788400172890   12.67715079865719   -5.87050373027088
S           0.06421444240101   11.14938000681007   -6.43454947574218
C           1.87973817116108   10.56840786066379   -3.05566111056791
C           2.67863742085657   11.00961300106335   -1.97683773010207
C           3.15629523506851   12.25791147803220   -1.74501463409171
C           4.04503374091029   12.53306473866446   -0.65813018034739
C           4.56028797654567   13.77482127107458   -0.40385231772465
C           5.46592505812612   13.98005916892831    0.67539968867940
C           5.99849894906284   15.22773343959821    0.97741059623072
C           6.90446644906383   15.41229397220128    2.03203922438837
N           7.64991337902781   15.55551562326995    2.89440251880116
C           5.65932906325204   16.37083803176763    0.23790914868872
N           5.38063120775114   17.30734278582297   -0.36764751772537
C           5.80627290004926   12.81520948482857    1.43072461333488
C           5.27630990594310   11.60044612901249    1.09917046450631
O           4.36991896904638   11.46317813562085    0.11324813010938
C           5.65334938151131   10.41215306872115    1.81979275892230
C           5.55985309407306    9.11976687706001    1.40948733912229
C           5.82437599315445    7.94300017959732    2.23355633809632
C           6.18556289337036    7.92534370859236    3.55565173015508
C           6.32185899630139    6.74327169970213    4.31296747264377
N           6.39850284720541    5.82702645531843    4.99890621288815
C           6.44638120457842    9.04821952455257    4.36883986812444
N           6.67498094352544    9.90264151611777    5.10089978521476
C           5.58132818070401    6.76107520236190    1.41937755869451
C           5.21964883779889    7.17133832928663    0.11259726695427
C           5.23758326696333    8.64168201784394    0.02922321469503
O           5.09603388552496    9.29754245833690   -0.97756218449207
C           4.91383289163398    6.28735312225711   -0.89281379121711
C           4.93740087431473    4.92320324617759   -0.58804153147886
C           5.29393006707991    4.51788132158855    0.72218294648785
C           5.63803505451234    5.41238160542638    1.72741197110547
S           5.21741108295998    2.79266852938012    0.89958889866368
C           4.70538469283257    2.63998786191892   -0.75696326925776
C           4.61379231504854    3.81971815118592   -1.42139554725477
Br          4.32483182228237    0.95159524991299   -1.45735690702303
H           4.07177178563936    8.45424514874122    8.00915362456776
H           4.12719929320828    5.83788294613146    7.97462027694873
H           2.59385833779480    3.32268279636962    2.48120588038148
H           1.21408400745610    2.55104408076672   -1.67243652704244
H           2.16405618010225    8.25276069616875   -1.43213885901434
H          -0.15438189776942    7.82760480587340   -5.95511732347912
H           1.72606455026711   13.48308324694996   -4.20858754102440
H           0.45698086280667   13.54683836419775   -6.46783734247302
H           2.98275483001971   10.23617751968161   -1.28570117019133
H           2.91390602547530   13.09172582860966   -2.38379937906038
H           4.28292375529633   14.60764152431013   -1.02991244039098
H           6.51048484411529   12.89687783553306    2.24371197681479
H           6.06582548163962   10.61496942858778    2.79809298097476
H           4.64916873966276    6.63852132109261   -1.87872983698876
H           5.91998806058895    5.04604062265977    2.69724439325778
H           4.31539607208167    3.90804923705654   -2.45152454761986
