126
 SCF done       -223.942663618106          0.000408836121
C         -22.19898932308745   -5.39316485433394    3.22663035084747
C         -22.49511855705020   -4.83741430355099    4.43933762206085
F         -23.70413633333087   -5.02150218178877    4.98786980938848
C         -21.53778109435008   -4.06614235073768    5.12797113368708
F         -21.85565580943456   -3.53323294119135    6.31664361950060
C         -20.29666862771864   -3.86114053531021    4.59404013634032
C         -19.96114960332929   -4.42039047036832    3.34580767854771
C         -20.92843041116407   -5.19975716941271    2.64762975379050
C         -20.61606276422082   -5.76824783090976    1.39174857713111
C         -19.37359897615904   -5.56327659990250    0.85072409543976
C         -18.41384494593547   -4.79236835513301    1.55849035930519
C         -18.68542610122626   -4.22825641700323    2.77124993435218
C         -17.15575431843015   -4.72992392733450    0.78636661453728
O         -16.16970272293993   -4.10783485024110    1.12375421076414
C         -17.37441835411967   -5.57919934604494   -0.40913530285879
C         -18.76906567238701   -6.00564838308360   -0.40104104660644
C         -19.44417581313747   -6.64523858549437   -1.40824904113032
C         -18.92403029599656   -7.00449819225695   -2.67046385257213
N         -18.60528663243225   -7.31734140727844   -3.72913000778804
C         -20.80547427735054   -7.00987290086353   -1.33424904076720
N         -21.90559628061245   -7.33849401143275   -1.33756926140853
C         -16.47278399627717   -6.06208260508233   -1.31791354747672
C         -15.08994748855174   -5.80685270025164   -1.56761982154525
C         -14.42930109007997   -6.71102421601854   -2.42901539972087
C         -13.09666923272924   -6.57869153968827   -2.73853496654895
C         -12.38840223771145   -5.50880456535543   -2.19726530826873
C         -13.03893223021604   -4.58110199531193   -1.36195262153737
C         -14.36614432374479   -4.71637748418644   -1.04966654710600
C         -12.07621312922325   -3.50758116134903   -0.90674722742886
C         -12.51773879805859   -2.12774441004159   -1.40421228910773
C         -11.94217070228022   -3.50828703553974    0.61920330514576
C         -10.79354566595258   -3.94994787400155   -1.57491129932109
C          -9.54996473479712   -3.37932095986853   -1.51719465764917
C          -8.46751236195568   -3.97183404313768   -2.20153783707671
C          -8.70852670475774   -5.12966588839279   -2.96258363432880
C          -9.95829483396984   -5.70214936436746   -3.03134821575171
C         -11.00761818970310   -5.12160619265953   -2.32828334876722
C          -7.18161805747367   -3.36063999014200   -2.07382663302076
C          -5.94985902199639   -3.79692022652755   -2.46951079526389
C          -4.73448354784825   -3.08777526915136   -2.23429858888117
C          -3.61064649298504   -3.72171842328317   -2.65478177264482
C          -3.85426392683767   -4.97927825454083   -3.25778081875567
S          -5.57419317154391   -5.31106849615402   -3.28051036094708
C          -2.94905236493958   -5.88329173486905   -3.76345164272595
C          -1.53596433437074   -5.79685341867382   -3.79986375363482
C          -0.93337218797725   -6.88555186233445   -4.34074951861667
C          -1.82358485220404   -7.91196653192247   -4.77654913022199
S          -3.47717046947604   -7.39698429579931   -4.46889685281081
C          -1.42295136158053   -9.10831751979424   -5.29616721382463
C          -2.19442349247907  -10.22177385070189   -5.75671310715982
C          -3.58259146671262  -10.16975055147509   -5.97036459152089
C          -4.28785642701277  -11.26873112111123   -6.40759768055961
C          -3.60960478167671  -12.45935444801191   -6.63653119433310
C          -2.21810070020430  -12.53208005150215   -6.43568450392677
C          -1.51828334279464  -11.43242840324785   -6.01428295902455
C          -1.70973545787852  -13.92362124033335   -6.74128839321528
C          -0.67194537733383  -13.90700111488035   -7.86689838984030
C          -1.13414402914135  -14.58303639941409   -5.48322796679754
C          -2.98136245171593  -14.62355980976421   -7.16442444107103
C          -3.15351421750720  -15.92144700207741   -7.57159600415935
C          -4.44781595669304  -16.38818243989391   -7.85088936469966
C          -5.53208759943320  -15.49958683425828   -7.78174403859274
C          -5.35654029029883  -14.18412370960899   -7.41553839832065
C          -4.07960380893891  -13.74767000411724   -7.08231836358312
C          -4.63535330187586  -17.75761166300213   -8.24372647546413
C          -5.71519114117484  -18.54934265595832   -8.02521287709851
C          -5.91734659462259  -19.77781193028400   -8.84017632475002
O          -5.10577940939856  -20.31656026054256   -9.55665566820803
C          -7.33200242749915  -20.15243011334355   -8.63008857377034
C          -8.06091504760545  -21.12925096003880   -9.24462429552396
C          -9.42307786653491  -21.28751402861516   -8.90394272139027
C         -10.00630737517659  -20.42283802680677   -7.93258627739853
C         -11.36765357439273  -20.58124554516092   -7.60347826559851
C         -12.11355072230040  -21.55409875266909   -8.20716329776100
C         -11.53539251093749  -22.40973704127548   -9.16618790756734
C         -10.21859333534825  -22.28046543867524   -9.50823694759741
F         -12.29123257729547  -23.35433017942445   -9.74303505194047
F         -13.40709756555968  -21.70394129901182   -7.89202078148384
C          -9.22487360771840  -19.42476496242509   -7.30717021258666
C          -7.90441108749040  -19.29585799161135   -7.64648163622748
C          -6.86492136194956  -18.39594048334850   -7.15453082527920
C          -6.89266749583921  -17.73434460811348   -5.95553312388070
C          -5.77314800866585  -17.09328906052921   -5.38424083360442
N          -4.88366942441680  -16.61574641300182   -4.83823036347652
C          -8.02110671315454  -17.69470348192481   -5.11203571143452
N          -8.92357411473744  -17.62071097181769   -4.40626904107959
H         -22.94385329482707   -5.97985452239868    2.71197671343587
H         -19.57450198906904   -3.26874565297603    5.13376011408007
H         -21.36871758396076   -6.35698242921396    0.89344973853157
H         -17.93606604123024   -3.64501610702510    3.28464158818512
H         -16.87009008248768   -6.82836897816082   -1.97485624996064
H         -14.99080858444684   -7.53549022482109   -2.84487278550887
H         -12.60969305275567   -7.28872104643093   -3.38966555323503
H         -14.85401126520250   -4.00169335347169   -0.41086680753208
H         -13.47427929222011   -1.86079198825373   -0.96224218058840
H         -12.62211745109940   -2.13168347364125   -2.48730799507183
H         -11.78355650551490   -1.37452148149034   -1.12862126553677
H         -12.90433724372342   -3.29613656443688    1.07823814729110
H         -11.22673764237624   -2.75341939360576    0.93652216337276
H         -11.59919727024681   -4.48064726074405    0.96657591217963
H          -9.38002270290222   -2.48287849594111   -0.93785641298939
H          -7.90204822454327   -5.57816151556933   -3.51845706141557
H         -10.11811596262579   -6.59135959981398   -3.62220756618686
H          -7.17679346044148   -2.41268868705178   -1.54741478376515
H          -4.74228011648884   -2.12684241553151   -1.75012251032163
H          -2.61546509342109   -3.32862981445370   -2.54705730988328
H          -1.01140592879298   -4.93909556960700   -3.41831265360113
H           0.13160625243415   -6.99963393924715   -4.44424557933197
H          -0.34840121820515   -9.24709167548213   -5.33822511001262
H          -4.11071584266929   -9.24429316824786   -5.81042039624932
H          -5.35302913866294  -11.20252122028038   -6.56973483057738
H          -0.44972631007853  -11.48224481575076   -5.85960363178887
H           0.20926445456024  -13.35001300570101   -7.55811684818665
H          -1.08647022449311  -13.43656791820219   -8.75614198009224
H          -0.37058394824555  -14.92097817217537   -8.11787640512913
H          -0.28092137312515  -14.01712919045750   -5.11689980463704
H          -0.81229075711485  -15.59763687217236   -5.70392107088423
H          -1.89053296057891  -14.62340073751641   -4.70296497255358
H          -2.32054696556789  -16.60585067815121   -7.63483103915716
H          -6.51579082694294  -15.85123012546426   -8.05948272316454
H          -6.19706241560984  -13.50773537882662   -7.38067534196781
H          -3.84489064781658  -18.20538039718666   -8.83829865617428
H          -7.60509774722528  -21.77260388957422   -9.98176873832237
H         -11.82473683469168  -19.93704680960272   -6.86867987449317
H          -9.79105774769476  -22.94310736198223  -10.24432837785289
H          -9.69221987224978  -18.77894954701235   -6.58085709509986
