87
 SCF done       -188.418264371572          0.000462746157
C          -9.09501116386686  -12.17704258598692    7.28969471790709
C          -9.53049699181617  -13.43958613698684    7.00276665509893
F         -10.12143651836087  -14.18297639137870    7.94986040898591
C          -9.38402179964321  -13.97431466811165    5.70721974272022
F          -9.84770479062595  -15.20701695001868    5.45408305877097
C          -8.79173539881999  -13.24316513412768    4.71641539490928
C          -8.31832504808531  -11.94318923860294    4.98423355711827
C          -8.48263929246977  -11.39401720291454    6.28919546840667
C          -8.04164376980558  -10.08265941322236    6.57320849718074
C          -7.44169776443618   -9.34290922614167    5.58627474821050
C          -7.26497649567543   -9.90571646091950    4.29317752105649
C          -7.68895077531885  -11.16790204183016    3.98605771308112
C          -6.57825554725340   -8.93764587587736    3.41865848988133
O          -6.13083349783446   -9.16453353251661    2.31892935973428
C          -6.42980944801516   -7.69132528046596    4.23719134056900
C          -6.90640061741740   -7.98503740864897    5.58542761209696
C          -6.90968004171354   -7.13490305837939    6.65609996412880
C          -6.41772776068401   -5.81064614162819    6.66094693644205
N          -6.04440717358628   -4.72885817765313    6.74470914982217
C          -7.41205795759571   -7.47392010725846    7.93298348353457
N          -7.79463562674392   -7.68887110044064    8.99278602612460
C          -5.87827408205358   -6.52497214438948    3.81643325515149
C          -5.61874196903543   -6.17906175708055    2.44071362650101
C          -4.66830525224843   -5.28243707261396    2.05411757647144
C          -4.45015824084220   -5.02372380462679    0.66312292538488
C          -3.49827797398778   -4.11861966227558    0.22935680115025
C          -3.28710882536022   -3.85890000880811   -1.13595164814776
N          -3.11737583246164   -3.64876383346006   -2.25171514240825
C          -2.68845798593372   -3.40387763113640    1.12881855793765
N          -2.02621873541446   -2.82586787375816    1.86740275999859
C          -5.26444458016085   -5.77206002320995   -0.25358213030589
C          -6.20575123467528   -6.62012099214908    0.22787050060850
O          -6.42100327651078   -6.78396224851411    1.54834916672991
C          -7.08705874936122   -7.49534306773433   -0.54221676065990
C          -7.02996584522038   -7.73940309447299   -1.87384210926723
C          -7.90448533975951   -8.72108654489754   -2.45087905672066
C          -7.90228278697492   -9.00841757991999   -3.80317846570669
C          -8.74184173189398   -9.99901144867448   -4.34028279491134
N          -9.42642801672281  -10.81630229178003   -4.76775982338274
C          -7.06367396340402   -8.33671624105929   -4.70822759395673
N          -6.37643279372367   -7.78397534750629   -5.44353453328764
C          -8.76021721748861   -9.41497976935163   -1.53733861571901
C          -8.75826248164310   -9.08988357870231   -0.21828631701577
O          -7.96571676496035   -8.11397511815626    0.27310491784348
C          -9.55725205420857   -9.75705957548320    0.78999364966122
C          -9.70560638451587   -9.28246650599850    2.08670832829091
F          -9.17457808178955   -8.10663849871786    2.45944857530719
C         -10.40076637908803   -9.97570928372947    3.08629800136438
F         -10.43655354376306   -9.39504959725771    4.30605641156234
C         -11.00415652845528  -11.21221356583326    2.89903748091852
C         -10.89423927073793  -11.70279815581213    1.57336577727191
C         -10.20284428753995  -10.99239264642663    0.54703455801276
N         -10.28444244338329  -11.73369730070556   -0.56684908276003
N         -10.97066372843198  -12.78425027702351   -0.21517287650203
N         -11.35758374333499  -12.83453740121849    1.02497932461177
C         -11.30232830812111  -13.81653705179883   -1.14651244870582
C         -11.63663839714862  -11.96822657494761    3.92996284830165
C         -12.06604230869658  -13.27926929854634    3.82005798595839
C         -12.56019740974308  -13.76682638116309    5.02475722848301
C         -12.52868404606647  -12.81276742962330    6.05566177520021
S         -11.88758889776673  -11.31977808062916    5.54616375711317
C         -13.01833614098922  -13.42412931158926    7.24422561783855
C         -13.34441341216004  -14.75740097368029    6.96171305831316
C         -13.06541104085905  -15.02296909402391    5.56241622559159
C         -13.20161989236917  -16.19842200731934    4.88489074307147
C         -13.69012029346481  -17.37046655253190    5.49994138670336
N         -14.09715135741529  -18.32019082278416    5.99645017544108
C         -12.85886046094964  -16.31257419531037    3.52091655202105
N         -12.58223542297674  -16.40147575467624    2.41143920763065
C         -13.81182306739505  -15.44557675579546    8.09574053816493
C         -13.82977428383156  -14.63641877726380    9.19253142562349
S         -13.28065226185958  -13.02685898157858    8.88297158088413
H          -9.22578311110762  -11.77897734166589    8.28360068288506
H          -8.68770852701497  -13.66786349000265    3.73025728823484
H          -8.19263756953534   -9.69589866085444    7.56729807761210
H          -7.54593005341621  -11.56967143210345    2.99366756829209
H          -5.62264525932887   -5.75761638528831    4.53312417328825
H          -4.05346140413331   -4.78828400951524    2.78978372456383
H          -5.11287228157532   -5.64890619698441   -1.31287610535263
H          -6.32038553592316   -7.22923330682872   -2.50384896829744
H          -9.40085963374419  -10.20424111942078   -1.89327073711766
H         -10.49414822699862  -13.91542630195744   -1.86832537855372
H         -12.21924042681474  -13.55754170044622   -1.67902605590451
H         -11.45710914255555  -14.74313723058489   -0.59733835752350
H         -11.99531421462798  -13.82758046818529    2.89954131856077
H         -14.11456378904058  -16.47648985759476    8.10841247703164
H         -14.13461621825769  -14.89060437326174   10.18806754205069
