88
 SCF done       -169.246380027297          0.000863185890
C         -17.65387327493697   10.57742473708211    0.51456166614917
C         -16.83577144190660   10.93393551903716   -0.51225541608320
C         -15.51614020639694   11.14832231499318   -0.06759735308085
C         -15.37746981351863   10.94601645413650    1.31226554133151
S         -16.84987619569785   10.49684699498879    2.05021599184138
C         -14.02129413451845   11.18134153054375    1.67331518753348
C         -13.31181466888695   11.53012311209754    0.51733836287341
C         -14.23501174794806   11.54781194706904   -0.61065290643746
C         -13.94114279719712   11.91902202191211   -1.89204894004174
C         -12.66341408652610   12.39339068201737   -2.25512438637309
N         -11.63589706189019   12.80901374239004   -2.55054024768935
C         -14.89887577571563   11.88316418329840   -2.92476002827115
N         -15.66775797819231   11.84102464363252   -3.77537194649152
C         -11.95476777143499   11.74771933892688    0.75215269228671
C         -11.62984754671813   11.58703139732440    2.08535088744910
S         -13.02404080256195   11.15244549533006    3.06269750906511
C         -10.34855053231536   11.74005952356901    2.67281493474620
C         -10.00993854213754   11.80652351051009    4.00748002052586
C          -8.64533361264833   11.98750748168727    4.22298179887543
C          -7.90525378949345   12.04199710159048    3.05911997001553
S          -8.93808944703792   11.88142994025122    1.66287623339882
C          -6.49767395263337   12.20588200266652    2.90894773756594
C          -5.85688123044706   12.01480336822544    1.70833005779596
C          -4.48696655781530   12.15075485913430    1.49549251025251
C          -3.60535826681173   12.55509752740099    2.60171253299344
C          -4.01806291420909   12.79412345973164    3.86450389558008
S          -5.64928525850796   12.66591036925821    4.37997366965520
C          -2.29423154552615   12.59613300092977    2.05343106737791
C          -2.33976874451977   12.22293564824301    0.71322578432123
C          -1.06096172311625   12.23333835077709    0.11399753921216
C          -0.09966044121942   12.60680592755386    0.99861272332226
S          -0.70009114792522   12.95770802313172    2.58482570543395
C          -3.70526763108729   11.93670040010058    0.34026538162523
C          -4.01885992745692   11.48345984430907   -0.95763052969283
C          -5.21930359012520   11.21265976376962   -1.54416021020209
C          -5.31324487546962   10.69076907020612   -2.84994364576894
S          -3.90326854674638   10.28427958549408   -3.80346781737459
C          -4.83827176917332    9.69698004141497   -5.15736154429187
C          -6.20430968898134    9.82926406574096   -4.87589747456931
C          -6.44641861026452   10.37985226651330   -3.58735762597344
S          -8.13974843338597   10.53001450268064   -3.23490899260149
C          -8.51398563774702    9.86150818639340   -4.80392194950482
C          -9.89291511811210    9.67365013030932   -5.25458996286151
O         -10.17835432905688    9.22123756521517   -6.33841122272373
O         -10.78253470915468   10.04214485887352   -4.32664397246231
C         -12.15725404665877    9.93910594825708   -4.69270969534261
C         -12.59171484209345   11.10138400897930   -5.57346692741630
C          -7.41408427207227    9.54546739068781   -5.54733754165911
C          -4.13325782731093    9.18013165825205   -6.25951522570414
C          -4.67479836313534    8.65860909549638   -7.39547702516646
C          -3.92103381023682    8.11706263202830   -8.46106408770665
C          -2.54482762393999    7.97561915711884   -8.59225014702281
C          -2.19105032474448    7.37253401257960   -9.79421004991685
C          -3.29613124440030    7.04791611515242  -10.59766970282512
S          -4.77493337902763    7.48752918996025   -9.86588357311176
C          -2.82032564825924    6.43915577947410  -11.78903127976559
C          -1.41986723442221    6.37903226185055  -11.73636141111610
C          -0.97402720734687    6.95880278652736  -10.48868729462389
C           0.30962312755046    7.09263144661653  -10.04112064378936
C           1.41793173279873    6.65352715141364  -10.79358221749361
N           2.32477935971737    6.29855215353957  -11.39958248777274
C           0.61262840358453    7.67391850453151   -8.79352244753762
N           0.86474703597683    8.15257696689236   -7.78177478644479
C          -0.86432789973611    5.78314734167230  -12.88612216237265
C          -1.83009332668913    5.41087859997939  -13.76875478086127
S          -3.44144305028847    5.77223145280899  -13.23300339450004
H         -18.70029668646406   10.35064930701724    0.47473379919361
H         -17.16397476887102   11.03364279784937   -1.53077762990946
H         -11.22678772316350   12.01450988395695    0.00730778637360
H         -10.74070297550640   11.73510289236049    4.79360112009611
H          -8.19979803701030   12.06721243501930    5.19856655110353
H          -6.48770726101832   11.72222838433903    0.88186411339306
H          -3.33800533841595   13.07856051353648    4.65176515320567
H          -0.85492877551868   11.98203611272905   -0.91059207348777
H           0.95377714749836   12.70348427987005    0.82228170849597
H          -3.14625947917545   11.31587383121803   -1.58078847179211
H          -6.16353124408761   11.38264289599568   -1.04977316400994
H         -12.69930773677474    9.93198589386994   -3.74468821613761
H         -12.31463632920190    8.98911293808685   -5.21479751758953
H         -12.32334798936174   12.04515906127479   -5.10385872362203
H         -13.66795581898516   11.06844925329022   -5.71741459990813
H         -12.10063589489800   11.03591077793517   -6.54105493893246
H          -7.51286154037243    9.13021466708631   -6.53241435127231
H          -3.05646475687770    9.20280705729744   -6.16002362171845
H          -5.74622676398777    8.63618469672708   -7.51796332567926
H          -1.84650077015250    8.29616359644367   -7.84185699038322
H           0.18696781669228    5.63618395153073  -13.05395673027285
H          -1.70422875619746    4.93728662824404  -14.72162622413503
