73
 SCF done       -160.021161679616          0.000753875735
C          -7.00411517859281   -1.00596210744865    2.55156410037812
C          -5.82062769470757   -0.96312191070285    3.22412589157778
C          -5.08782467371644    0.19378728696003    2.89779262033570
C          -5.75532144027390    1.00480892859466    1.97244397446387
S          -7.26263825491808    0.35247758065550    1.50859569451565
C          -4.94744846423533    2.14757467373351    1.70389688563987
C          -3.77244489516500    2.04725615399835    2.46080382760385
C          -3.82660452597494    0.82229594773126    3.24736129067005
C          -2.89357427083383    0.38327265599012    4.14055389481427
C          -1.72725530346800    1.12407448695764    4.42621450580972
N          -0.78378896851668    1.72778062667471    4.67250612883343
C          -3.03954267104802   -0.83116454259314    4.84350326428519
N          -3.15464021593965   -1.82297963742745    5.40712653074180
C          -2.89853775734858    3.11574547513402    2.25371225655596
C          -3.40454582179158    4.03530939821650    1.35737042986300
S          -4.98769414403415    3.56222951531754    0.75498308540051
C          -2.81078445093762    5.27162831387600    0.94566822513063
C          -3.47202299745684    6.17403618031413    0.13274447688670
C          -2.93218485113082    7.42168237684653   -0.18420481142250
F          -3.70930431124227    8.24467183583677   -0.91434136294023
C          -1.70876754737000    7.87487868735179    0.26970930395838
C          -0.97122774375107    6.94128853330547    1.03814057466715
C          -1.51698852916452    5.65869146907182    1.39356078923013
N          -0.67530256121695    4.96407801138773    2.15529927308529
S           0.66109501768832    5.82462232241242    2.38939069462312
N           0.24556748098577    7.12511641406254    1.54560382029886
C          -1.19520482452842    9.21925150009170   -0.00230341996969
S          -1.14052260102845    9.55911124150053   -1.73616051961618
C          -1.28735922793618   11.31033397235559   -1.76633068262364
C          -1.89043463939328   11.99780655316105   -2.77215018667222
S          -1.81197564118530   13.69673420214994   -2.52423257630729
C          -0.98113048504194   13.47870197759681   -1.03419685405805
C          -0.76375925501455   12.16429492546860   -0.76111469074289
S           0.08484056312794   11.59192049661652    0.66710686162051
C          -0.73740392971973   10.03847117083445    0.97305710919610
C          -0.77561116537336    9.74736393525796    2.38491116158772
C          -1.69424233438254    8.97851562268018    2.99450659928063
C          -1.64212569716256    8.50711398191615    4.35461989052425
C          -0.95476774597946    9.07317488246338    5.41250001203213
F          -0.29251897343471   10.23072332686320    5.25087107383484
C          -0.93001470188935    8.51003654319698    6.70346085757041
F          -0.26341887377084    9.20529571649381    7.64005558458177
C          -1.57267894216090    7.33409295331590    7.04017282816597
C          -2.27999083079541    6.71411759372448    5.97980663959514
C          -2.31915290833214    7.29728338093348    4.66641721682755
N          -3.01304216513610    6.54962103101832    3.80863627003601
S          -3.55135967987768    5.24380793892349    4.57597408382268
N          -2.94664444663246    5.56081300424676    6.02568497905312
C          -1.55112934474723    6.76221406054674    8.38791199112665
C          -0.40508281535859    6.82059172461798    9.18484418385656
C          -0.42316308180206    6.26966328662233   10.44515969314889
C          -1.57241834475467    5.65511878534546   10.93963240535732
C          -2.73708039402927    5.59149058320310   10.16304121886135
C          -2.69385237600295    6.14700993690366    8.89263169678316
C          -4.03055459775682    4.97655332061815   10.64053345073363
O          -5.13689017421032    5.31074077882498    9.84185958104058
N          -1.49386201021425    5.09864515183676   12.26132791262960
O          -0.57401935653802    5.45846059776680   12.96692070676414
O          -2.34317201077783    4.29928895273168   12.60349624666285
H          -7.75979348153852   -1.76406344716069    2.60071937963342
H          -5.49751686941504   -1.72178212178733    3.91278412001928
H          -1.93328187960802    3.23513628298810    2.70955082784549
H          -4.45661569889558    5.94650436981572   -0.24699529691248
H          -2.35940045825044   11.59710302021872   -3.64733884303976
H          -0.68314615921864   14.32498041447108   -0.44993306508908
H           0.02200777509301   10.20633434709244    2.95263827220962
H          -2.51961218201970    8.56571457265868    2.43317732285569
H           0.50010131868797    7.27324801786545    8.81486004096775
H           0.45419262363537    6.29590738570671   11.07342458473162
H          -3.57854339915460    6.08567820365676    8.27888457179133
H          -4.21360315047262    5.23938931878313   11.69082558784935
H          -3.94528385754334    3.88626089373081   10.59448855893666
H          -5.32800682518981    6.24948692794844    9.94629725612707
