95
 SCF done       -196.282706674505          0.000850184464
C           6.01822379159818   -2.29707182459721    4.10242560802933
C           7.02703615235627   -1.77398707814828    3.34330882795028
F           8.10204618232590   -1.23316928271912    3.93195951547625
C           6.95182447575477   -1.79709763919069    1.93620321095023
F           7.95678017202614   -1.27877233062340    1.21690223144961
C           5.86791619884358   -2.34272412751037    1.30743784322045
C           4.81252463895958   -2.89097294591335    2.06185115797525
C           4.88727932740758   -2.86814034467154    3.48486640147355
C           3.84174729984383   -3.41571643178065    4.26301330535906
C           2.75953988490665   -3.97375360775731    3.63544424204150
C           2.69633436085824   -3.99898774831228    2.21538545626537
C           3.68555736943680   -3.47063634884989    1.43750730237801
C           1.45579186047789   -4.67742324060208    1.78602303866733
O           1.07708207270987   -4.80104056140655    0.64049310591716
C           0.82649812216580   -5.17225513646953    3.03210996684725
C           1.56003799844768   -4.61878424216181    4.15800907023045
C           1.16660711046626   -4.62014091297758    5.47019258068350
C          -0.05239326032830   -5.14326150770350    5.95282543390838
N          -1.03011057362686   -5.52680982028136    6.41695026431196
C           1.91559920150206   -4.03757795353265    6.51422217583918
N           2.48666483377654   -3.59111829558933    7.40422530519287
C          -0.13410799666090   -6.13858032326476    3.16243532198715
C          -0.92143070461054   -6.78795925910297    2.19261217362795
C          -1.20694197792080   -6.49560150536147    0.86765646062444
C          -2.03798267213656   -7.44758120760172    0.29381268382201
C          -2.39970369034898   -8.49248953320337    1.16476006642641
S          -1.73586171889903   -8.26465242973375    2.72877155304981
C          -3.18020545718552   -9.45923773671172    0.53136276222892
C          -3.43242870973185   -9.14914845742370   -0.81197682967958
S          -2.70576740711928   -7.64699831602001   -1.30515653506978
C          -4.17006883482187  -10.12653612859249   -1.48195603126542
C          -4.47024389620570  -11.19416604165110   -0.66273472371740
S          -3.86520401765191  -10.97948356655082    0.97054992056196
C          -5.11834976197437  -12.40776561465410   -1.01032747432639
C          -5.23573986666694  -13.53523916537894   -0.22584155683419
C          -5.84267768915940  -14.58620692124063   -0.91046561524460
C          -6.21364638250529  -14.26515813499936   -2.22467174618285
S          -5.79878292955448  -12.63470944973294   -2.61325719351376
C          -6.77375534102846  -15.35305053151382   -2.89470559251165
C          -6.80579159880769  -16.50712118266823   -2.09274916080487
S          -6.18349405037015  -16.23868001619836   -0.48977107974490
C          -7.29676111705691  -17.63422878362987   -2.73770657075330
C          -7.66817483884747  -17.36718685050614   -4.04761125296351
S          -7.41470134716644  -15.66842051472694   -4.46157113029356
C          -8.16744604642929  -18.22961769033314   -5.03926675409032
C          -8.15197455787988  -19.60221772310188   -5.02244605650508
C          -8.65329637602659  -20.45030952161924   -6.04308239787706
C          -8.42739355857124  -21.77737413008362   -5.83412853957108
C          -7.72698952201143  -22.05316253241959   -4.63890822469929
S          -7.40414232064145  -20.57658023206203   -3.76879677777953
C          -7.27815566266474  -23.27120032362278   -4.15603565486039
C          -7.44674300562551  -24.55687548186762   -4.70973579799837
C          -6.82832873350009  -25.54389290798084   -3.99729078948908
C          -6.13877416933373  -25.08537445863473   -2.85209899932762
S          -6.32207632637740  -23.35371260239057   -2.69378248006361
C          -5.39117357174501  -25.84253004484064   -1.96926438793916
C          -4.71942345442262  -25.28084278984738   -0.88862410734646
C          -3.92131130789968  -25.96877962685394    0.00341945850107
C          -3.20255913165330  -25.40922638535871    1.11883716798598
C          -3.18606014157147  -24.09442570156354    1.52632486524062
C          -2.45525761417307  -23.61933415869802    2.63291186640522
N          -1.88554618082398  -23.16838874311442    3.52301241148225
C          -3.88073650126280  -23.03136551444701    0.91641617925013
N          -4.40493063753870  -22.10392246138140    0.48419703121814
C          -2.46902892324605  -26.49661060517914    1.76479109591604
C          -2.73324087215451  -27.69963777228853    1.06623574948682
C          -3.65363435938577  -27.41816648975762   -0.05642822690068
O          -4.08433936420891  -28.22969781050152   -0.85307505364412
C          -2.18139656254779  -28.90338979509800    1.42754718548205
C          -1.32478536193895  -28.92323672765259    2.53414961413528
C          -1.06801676065961  -27.71772528705570    3.22660404174588
C          -1.62749552601330  -26.49893277769344    2.86038343751320
S           0.01820719886404  -27.96558902578705    4.56090927881544
C           0.11070322900504  -29.66312870507218    4.17380865084646
C          -0.63207030105537  -30.02768625880218    3.10232991963028
Br          1.18120681884771  -30.79388110180171    5.22059336201605
H           6.09100503771193   -2.27053173793626    5.17846282854537
H           5.82573324006477   -2.35340201345762    0.22956047593044
H           3.92979192784947   -3.39019891317864    5.33709674830850
H           3.61248982632262   -3.50121113313851    0.36100739429838
H          -0.28837788529463   -6.52625521257798    4.16356478984702
H          -0.81307748718925   -5.63675944744550    0.35783842710117
H          -4.45639574288265  -10.07859201439429   -2.51650028669029
H          -4.87550241040403  -13.59071713807883    0.78505089136058
H          -7.39976226430079  -18.59167460207541   -2.26451011851107
H          -8.56178491402075  -17.75968703997912   -5.93097354508215
H          -9.15785476680284  -20.04799001190833   -6.90371731476395
H          -8.72673616759001  -22.55702820525086   -6.51098476586240
H          -8.01151521984379  -24.72177336700719   -5.60979896226105
H          -6.83917075056387  -26.58604421826859   -4.26253650128704
H          -5.31780431169787  -26.90645570159545   -2.14143305590609
H          -4.83043543870157  -24.21180830961430   -0.75318433595106
H          -2.40179236684792  -29.80269307094455    0.87399715956428
H          -1.39801655207959  -25.60872576370615    3.42139968459466
H          -0.69011936287523  -31.03270366076411    2.72601892711325
