74
 SCF done       -149.536185000500          0.000797586634
C           4.66845816532749   -0.83789341774487   -1.25865617843210
C           4.55657805268758   -0.53513032748755    0.06381525863893
C           3.72115460219300    0.58089943137626    0.26480613441440
C           3.21919510101802    1.09529948240050   -0.93432259870037
S           3.76538906508912    0.22015552135915   -2.29311858709102
C           2.39078403015498    2.21854433522553   -0.63565853782780
C           2.37677205894381    2.40260435023622    0.74955644953434
C           3.21187467556455    1.38004526746107    1.36578789034141
C           3.46093739175051    1.21388926917665    2.69695508164024
C           2.90450632518494    2.06332950019477    3.67562560798370
N           2.45465530796615    2.75307430137791    4.47396576710195
C           4.29192684209785    0.18412822085830    3.18508593952057
N           4.96449138200550   -0.65242920349124    3.58879618615948
C           1.58837102685406    3.48946943996673    1.14554015083928
C           1.00356606207763    4.13162650184946    0.07632468378533
S           1.43735493456207    3.37339558725841   -1.44895359379030
C           0.13748145668242    5.28813241019082    0.08961432372089
C          -0.45798807259426    5.73298004741716   -1.10786631069093
C          -1.28603194816614    6.82860763073119   -1.16686302433549
C          -1.53090553140469    7.51012141398024    0.02015229710206
C          -0.93692330470510    7.06440674431697    1.22258154128840
C          -0.10634700905232    5.96863222018123    1.28613652399824
O          -1.33926446402066    7.90163842266658    2.20816251144567
C          -2.14480802240444    8.80637536621989    1.58238964431491
N          -2.28366776815329    8.61440752330715    0.30528995405934
C          -2.76039708777058    9.86789893921017    2.34373445809405
C          -2.55077718522142    9.95165147128464    3.73194152930377
C          -3.12100085839679   10.94644317006964    4.49238405851253
C          -3.91931668406607   11.87737235583884    3.83532707328875
C          -4.12246828312508   11.78498137930521    2.43742007324602
C          -3.55761262652574   10.79299330239001    1.66916777700520
O          -4.93032880650965   12.81096195691934    2.07762394794707
C          -5.18413067545445   13.47353097136464    3.24139314829122
N          -4.61415588391734   12.96266798414130    4.29059391312617
C          -6.03144634828343   14.64255643124419    3.22487640176032
C          -6.29618907602517   15.30316557789652    4.43890648757438
C          -7.09596562293240   16.42002688993482    4.49663163659776
C          -7.64066642103270   16.88081082959863    3.30081123420721
C          -7.36682923569761   16.20890006832595    2.08536804402321
C          -6.56817438338128   15.09042967469416    2.01758683373116
O          -8.02091370692912   16.87004341674152    1.09835581115728
C          -8.65250189129379   17.89419072426241    1.74046267557814
N          -8.45880090201820   17.93974753774654    3.02552375868671
C          -9.44814491873954   18.80063508452126    0.98725905143559
C         -10.15491794074991   19.88278657079538    1.47039633001460
C         -10.82779383324083   20.54789350083647    0.44375862944627
C         -10.62146520104375   19.95818180392415   -0.81308966035257
S          -9.60577753540004   18.59208346320041   -0.74151942272077
C         -11.34765001388204   20.70480778384806   -1.78637213023908
C         -12.00642175386862   21.75718997537733   -1.14229852094857
C         -11.70576487559816   21.69961594458270    0.27816244951982
C         -12.15133624751934   22.54415042642730    1.25143869907970
C         -13.00719806481392   23.62980698426547    0.96773184337898
N         -13.69830655515232   24.51662672051751    0.74251378846479
C         -11.79460175300360   22.39388500052722    2.60875720043254
N         -11.51144069075765   22.28845609472465    3.71458381419139
C         -12.75319221668712   22.54984024728771   -2.03473591499054
C         -12.64634748541249   22.09005064404727   -3.31249409580407
S         -11.64126502487447   20.68883789042921   -3.46764364420281
H           5.23408044314193   -1.62996234550248   -1.70675886746486
H           5.04797142582504   -1.08439418560629    0.84590887830038
H           1.44827067883993    3.78549251972729    2.16818302808313
H          -0.25238827351919    5.18388448768945   -2.01552415243044
H          -1.73219655426208    7.15406501527167   -2.09177512030104
H           0.33470264936190    5.66434032027970    2.21989915288558
H          -1.92419229829848    9.20793302850152    4.19956995548199
H          -2.96316930600506   11.01247396661927    5.55600839604919
H          -3.70703426143838   10.71377022678122    0.60592511879215
H          -5.84590136531684   14.89811068177107    5.33081392248753
H          -7.30290547043742   16.92929397800629    5.42283718903260
H          -6.36506350676874   14.58461636148669    1.08811844241435
H         -10.15901946537166   20.14348938079283    2.51233643990371
H         -13.33592275957985   23.40858159484331   -1.75619776589486
H         -13.10319250641918   22.49213411389348   -4.19455901118796
