104
 SCF done       -201.147950959773          0.000602665254
C           0.79921864297527   -3.29806877695987    0.71774838491650
C          -0.06367587956228   -3.11929130306037   -0.31922681557393
C          -0.31807971079367   -1.75222134965981   -0.54597684620380
C           0.37492935963421   -0.92569339404901    0.34506831731152
S           1.32686695101195   -1.81539831435162    1.44731924550335
C           0.05826300250132    0.43053618041596    0.04620865057413
C          -0.83274066840959    0.45352368515908   -1.03199432860104
C          -1.09954909761183   -0.92070259860351   -1.44221762913536
C          -1.91425671794268   -1.33288161748211   -2.45630542295494
C          -2.62887692538995   -0.42756499349451   -3.26805660508676
N          -3.21543087769170    0.29794826955963   -3.93495124021249
C          -2.09801467226657   -2.69704793253459   -2.76341334720289
N          -2.25080544083470   -3.80451921643246   -3.01884865261552
C          -1.20985368796422    1.74866604814937   -1.40088934320360
C          -0.61125209383205    2.70641594860013   -0.60965829863304
S           0.43733265430701    1.99730451859777    0.61029561504126
C          -0.76413342938937    4.11956566841742   -0.68035355940409
C          -0.16495022248470    5.04713622841805    0.12454200528031
C          -0.52362321216364    6.38794316309233   -0.17276159293794
C          -1.43646576017265    6.43071480849158   -1.25920247473309
S          -1.81484971157303    4.84695651369754   -1.87613314578197
C          -2.00465699690978    7.57378626361401   -1.80571738354500
O          -2.84537756196415    7.31706626687287   -2.84657422819950
C          -3.47359137754773    8.35257254448478   -3.55619603393000
C          -1.64933217424490    8.80272063179479   -1.21965921059810
C          -0.73247143168600    8.75712130981612   -0.13760726307372
C          -0.15442502086135    7.61592192045099    0.40240049111411
O           0.69579415974271    7.87253468367313    1.43354976241486
C           1.38871039864291    6.84294314915173    2.09090708606231
S          -0.38006912275065   10.33140795223625    0.50560688810628
C          -1.46173736431843   11.06592480025956   -0.65501458385978
C          -2.04028585306024   10.14421339020218   -1.48366983055608
C          -1.65663975829076   12.47879315778355   -0.63842220077138
C          -2.41711032398691   13.25106509491251   -1.49193400323467
C          -2.37044955531895   14.60344007156131   -1.13907495587321
C          -1.57016511912670   14.86212485299364   -0.00782722541156
S          -0.86795551670548   13.42086378267562    0.61689036608172
C          -1.62813756811169   16.23668019654723    0.22451796479087
C          -2.46143062124686   16.78846606076075   -0.77161300395321
N          -2.90370786018565   15.78266313656758   -1.59315774986651
C          -2.62079054051427   18.17241188479687   -0.66695996215787
C          -1.91723693526777   18.68682520770405    0.40448704869432
S          -1.04250206600744   17.44409943635826    1.29712311208390
C          -1.79791625559951   20.02002438358007    0.87993447175061
C          -2.36128229378179   21.12229079895573    0.33555207828185
C          -2.19590254866450   22.43463689950568    0.86843804672468
C          -1.52110431254211   22.83078049160963    1.99245705327906
C          -1.55624025897567   24.22475116171279    2.21065625849531
C          -2.28315206729525   24.90394969659433    1.21803290903747
S          -2.91708789577602   23.80262445237970    0.03293255498794
C          -2.46283312233831   26.28313916442507    1.19658908085680
O          -3.20186042894764   26.71944289607811    0.14177329697126
C          -3.65445835704851   28.04457323052749    0.02206206658072
C          -1.85530984652331   27.01208121285605    2.23638889546626
C          -1.12591769303472   26.31342928369157    3.25642240046880
C          -0.96424169353206   24.94041096209512    3.27423271379908
O          -0.30865883354133   24.15717628115090    4.17059011515660
C           0.31695809772802   24.70922561273616    5.30322942014464
S          -0.47122796030951   27.44491087711200    4.42939001869123
C          -1.13679033655246   28.80510898181464    3.56629413790118
C          -1.82761497541678   28.41502046295614    2.45510589157170
C          -0.92079331079108   30.12859369777504    4.04281425159920
C          -1.36478416529080   31.31316013913136    3.48726997966937
C          -0.95183330702997   32.42271186711830    4.22762646907042
C          -0.19106569347988   32.07944070053055    5.35192728920409
S           0.01854704152776   30.39113713755712    5.50155792722914
C           0.17719592385868   33.27694260264298    6.02793793459195
C          -0.35176190652207   34.36795788557959    5.32727148407733
C          -1.07813668339265   33.87478862236277    4.17504863045308
C          -1.74378624616985   34.60435354852020    3.23101680614591
C          -1.80389521633330   36.01202443216708    3.27172705730288
N          -1.85604328042559   37.15758861148389    3.29896737780946
C          -2.41479248375160   33.99248172616841    2.15344710451223
N          -2.96040063971127   33.49160921863192    1.27702571391046
C          -0.03133725897286   35.60052135582629    5.93067198392887
C           0.71784192404358   35.42401475477939    7.05238973867844
S           1.05597917279151   33.75964523340186    7.40910329968601
H           1.17071709355067   -4.22176674508401    1.11374195095406
H          -0.49088633825118   -3.92624611744703   -0.88588522615120
H          -1.88452643817800    1.99988639031093   -2.19919540004367
H           0.50665018748744    4.74229263985169    0.90482935394116
H          -4.02803982372985    7.85610049611309   -4.35229444214273
H          -2.74429697084435    9.03684471070840   -3.99978555575840
H          -4.17514604922750    8.90512226118789   -2.92377433259892
H           2.00449551959785    7.34596462548123    2.83607024516257
H           2.03715804564784    6.29098519441627    1.40417919114771
H           0.70406600899970    6.15660755259349    2.59800830681081
H          -2.73272915713184   10.44241084782819   -2.24609932320901
H          -2.96949589998348   12.85118003781296   -2.32195396607039
H          -3.51272926396974   15.89125362080281   -2.38502760720089
H          -3.21542615033419   18.77529879789575   -1.32773479789365
H          -1.18587922310119   20.12976380728156    1.76410491956716
H          -2.96844966107626   21.04166633349785   -0.55430524950643
H          -1.00831208053003   22.16441718384234    2.65949651450681
H          -4.35201754454663   28.02965436445648   -0.81541206387796
H          -2.83630641234157   28.73140457494521   -0.21483514071947
H          -4.18214968096543   28.37648238415789    0.92036132137127
H           0.72951076564208   23.85733510374566    5.84284996280568
H          -0.39506237771214   25.23086602707376    5.94817365189639
H           1.12977086489061   25.38735258754954    5.03028205929927
H          -2.28750975046545   29.14059541466156    1.81481908388610
H          -1.95563020066262   31.36056580572592    2.59164077218306
H          -0.33464589654686   36.56264281836063    5.56018704391508
H           1.10488305298931   36.17517356740810    7.71117626892889
