82
 SCF done       -168.815779736265          0.000425263589
C          -4.70254345087143    0.98559890524749   -7.21229547978983
C          -3.35293618157076    0.85076679544262   -7.09827104313793
C          -2.84381303460522    1.64887121826221   -6.05518516119465
C          -3.84577255602820    2.37655987958255   -5.40171356270212
S          -5.39257818601278    2.08314545154314   -6.06016934701141
C          -3.24616990121871    3.15113822173290   -4.36852881425069
C          -1.86732119631442    2.90575464523136   -4.37416350121605
C          -1.56692058294496    1.95521742485775   -5.43925675428642
C          -0.33969229942279    1.46858724189253   -5.78358113339426
C           0.84175802719056    1.84769091173190   -5.11236909801449
N           1.81207787399789    2.14672368634447   -4.57908824987420
C          -0.16567435851705    0.55307622176799   -6.84259069813457
N          -0.01767286659308   -0.19145409654837   -7.70227143299505
C          -1.17693817302411    3.62379896509918   -3.39671469780242
C          -2.02508675785836    4.41646080629296   -2.64383027129000
S          -3.69980313477851    4.26948951322217   -3.16074958681691
C          -1.70737523954393    5.29212691141560   -1.57505707128503
C          -0.52207144196252    5.42201617431815   -0.86657394291717
C          -0.56974976748384    6.43497805327093    0.11617647428375
O           0.43527437371121    6.80202602622777    0.94968427067934
C           1.72865552709173    6.33451484276756    0.62623142165325
C           1.75959780130534    4.83000156310394    0.42746620272498
S           0.88252518723681    4.39696831179926   -1.11102748970491
C          -1.80158384871788    7.07397749750684    0.18217044209175
S          -2.90111324835291    6.41728911203515   -0.99114640236631
C          -2.18207615687198    8.14152862376156    1.03469666954205
C          -1.42353633499507    8.75919276565674    2.01275404501004
C          -2.11610668495187    9.80455946060095    2.62350739417652
C          -3.41282924884046    9.98075583361953    2.11261187212676
S          -3.78059084818735    8.85677101546163    0.87935987444133
C          -4.01815270510342   11.07191098072441    2.78301400298842
C          -3.10479987585963   11.58875456511026    3.71746879652126
C          -1.88091819249454   10.80552529170588    3.65251838162106
C          -0.74840999094107   10.97261828254170    4.39442543631875
C          -0.62786661065414   11.97890155215227    5.37603363502668
N          -0.51651905260563   12.79119749600904    6.17790393184203
C           0.38500093375527   10.14884119177992    4.23039895694532
N           1.31290163996529    9.48686460744895    4.10255418369244
C          -3.59774976634354   12.69205875672261    4.41434589062072
C          -4.88431891819109   13.01957913270851    4.02281278188070
S          -5.48827278768324   11.93939375800755    2.76919103969009
C          -5.71780964987951   14.07323230734329    4.47173980556722
C          -5.51112442352944   15.00199120988187    5.48197437051635
C          -6.56638414660481   15.93252870934577    5.60616524069745
O          -6.63661257727193   16.96360471521379    6.48529426384878
C          -5.43262790867721   17.32798753903239    7.12800768329114
C          -4.76557608270907   16.14384664791309    7.80372697216083
S          -4.10986526429456   15.00517506755115    6.54015036715307
C          -7.60395253556500   15.70500365948361    4.71144821266789
S          -7.25453811553946   14.34015316316280    3.69648753864747
C          -8.81043629981017   16.43867200995931    4.56979178846251
C          -9.22057255397255   17.54718693441576    5.28771888844862
C         -10.46531321937142   18.00984685425896    4.85852584599562
C         -11.00729826755572   17.24909862726614    3.81512592461361
S          -9.98404912339755   15.96146380252084    3.35322524704876
C         -12.26951879609706   17.80532869977229    3.46152927081081
C         -12.51659416973672   18.91381919883308    4.28074962673569
C         -11.39563750680346   19.08521024900315    5.18426152741672
C         -11.23148512543346   20.04888646425950    6.13675851028396
C         -12.19832835975810   21.04947920006427    6.36748525087553
N         -12.98124172877127   21.86548995240929    6.55880903972984
C         -10.08295915606240   20.11351171852082    6.95251205414114
N          -9.15165898376046   20.17609612305887    7.61934347434300
C         -13.75216799674295   19.52779053725112    3.99588662547231
C         -14.40418522823833   18.88624047512976    2.98827391567045
S         -13.53876774432716   17.52153673485472    2.35706069669028
H          -5.35502142358399    0.50315790072893   -7.91203313173747
H          -2.76111046751808    0.21340527697207   -7.72941527662670
H          -0.11401963217894    3.59037634573331   -3.25042940374379
H           2.34876768078356    6.62665085703281    1.47745157314099
H           2.09627485407904    6.83801145315925   -0.27813784506117
H           1.27797629521729    4.31768972700754    1.26085245391237
H           2.77800188585089    4.46913394188554    0.30501181433886
H          -0.42297678798154    8.45204539396104    2.24847119090364
H          -3.04876630749742   13.23784247939141    5.15787893568572
H          -5.72842795296388   18.07936706342146    7.86439843657068
H          -4.74194637201756   17.78310341005849    6.40513373516420
H          -5.47659358768568   15.60110945411599    8.42726676662949
H          -3.91083161906584   16.45772226432983    8.39815234349187
H          -8.63132568694997   17.97755465909160    6.07426187319183
H         -14.14000614293119   20.39230415705305    4.50291383006819
H         -15.35736773594132   19.12737741736194    2.56243859706180
