72
 SCF done       -155.876357434664          0.000475967770
C          -3.19496806282366   -2.47419337137309   -1.71511034364357
C          -2.34829704249513   -2.36383226447184   -0.65282926829882
C          -2.09737693056662   -1.01529323573649   -0.33918409483600
C          -2.77435288536029   -0.13294423533001   -1.18957828856976
S          -3.70791714940023   -0.95228109211846   -2.36023224408851
C          -2.46663486904423    1.20416286690470   -0.80414678015231
C          -1.59064504214718    1.15082272785283    0.29572500319359
C          -1.33055265158355   -0.24307194393784    0.62345272309435
C          -0.53437566700011   -0.71862322757126    1.62405647744808
C           0.16410509665899    0.13658944903056    2.50267239148899
N           0.73528272671048    0.82135475027838    3.22354489859210
C          -0.35446487440368   -2.09957894414788    1.84966303802078
N          -0.20512700517353   -3.22091099884160    2.03730543206510
C          -1.22484830927578    2.41502854693022    0.75402311248003
C          -1.81896627477866    3.41269058711338    0.00583197805866
S          -2.84107299745032    2.79715070560910   -1.27640793631689
C          -1.69463644972366    4.82393661219922    0.15481390524381
N          -2.36154648748647    5.59233316612481   -0.69363709200452
N          -2.33202988778591    6.88834927850844   -0.64915161613052
C          -1.62066844681762    7.57135836956485    0.22842246773819
C          -0.84599406038329    6.86536044300566    1.19300779979186
C          -0.89274054453305    5.43367568078164    1.16064190038034
N          -0.14024265503570    4.88251673470697    2.10796744157424
S           0.56543069223381    6.05192838462144    2.95300192486653
N          -0.05067821820589    7.31035489260588    2.16445451763822
C          -1.68422399638629    9.01834287416527    0.15726252188722
C          -1.23198987253817    9.86034372182854    1.18029262700453
N          -1.29727590289578   11.16922049821409    1.08735702203053
C          -1.83855616932169   11.68553901164938   -0.01333382168517
N          -2.31288757801148   10.97951471481894   -1.03703189890049
C          -2.22375204212440    9.67276462674962   -0.96150391610834
C          -1.90684240642091   13.14283985693050   -0.08186113249576
N          -1.96680498760058   13.72915394376885   -1.25933715339260
N          -1.97243536102113   15.01639490849942   -1.40716819430376
C          -1.90438508953071   15.86656947337024   -0.39641899736924
C          -1.91110989416910   15.35881805291386    0.93242103201619
C          -1.90463786512898   13.93447866112803    1.09591306922798
N          -1.95379570557252   13.58028783028949    2.37754046608508
S          -1.99783032146102   14.89935825980213    3.27844358175825
N          -1.96594405576605   15.99811413651609    2.10027678579584
C          -1.90302626421988   17.27114847339698   -0.71770410089723
C          -1.39896196051496   18.29516190895639    0.00240387745758
C          -1.84629627466535   19.69592762796696   -0.29309117765943
O          -2.39234961794478   20.08116229409386   -1.29682023294168
C          -1.53638708815369   20.45707625984357    0.93087862881147
C          -1.87807708215508   21.73982969001898    1.25313826941092
C          -1.50817254479271   22.25535379747457    2.51503155718120
C          -0.79122506677518   21.42541195371501    3.42681778066972
C          -0.43881968807045   21.94156158628690    4.68921134550513
C          -0.78822186039729   23.22330774897524    5.01160231184423
C          -1.48977955211498   24.05597592781587    4.12822712010089
C          -1.83999962524119   23.57136398909514    2.89899182831109
F          -0.45485407834373   23.71674191382061    6.21680987394898
C          -0.44164706262036   20.10474120239692    3.06331214217809
C          -0.80330228607738   19.62991782037640    1.83117991472502
C          -0.56893080079810   18.34012366204267    1.19398682233453
C           0.40263226987058   17.44546233990603    1.54185640941349
C           0.72921607252192   16.29804296957576    0.78829955515075
N           1.04835855076500   15.35588137055475    0.21633245281606
C           1.21859820844514   17.57830717531879    2.68504611285153
N           1.88975891952871   17.62338776784645    3.61468686119195
H          -3.55892294012045   -3.37322474603948   -2.17104546518608
H          -1.93234937732424   -3.20564511435901   -0.13025025701308
H          -0.56834697272263    2.62560468103070    1.57878730703862
H          -0.80627122017504    9.46367049258681    2.09227784620373
H          -2.58980192902274    9.10304243155035   -1.80478599494799
H          -2.42151333460792   17.52924305292204   -1.63473625675850
H          -2.42818266759530   22.35271295079922    0.55494731326128
H           0.10473993654944   21.33024035366025    5.39250329487985
H          -1.73785315767166   25.05871778058719    4.43804253751542
H          -2.38071735063467   24.19379376100425    2.20217440835216
H           0.09215508892780   19.49409242384723    3.77411857512638
