120
 SCF done       -226.505638009946          0.000637818239
C           2.35576012887177   -2.25856727062786    1.36870720069012
C           1.47758103457685   -2.10513285087293    0.34080954886469
C           1.12824151327470   -0.75193738450257    0.16137689055908
C           1.76685572179541    0.09071660958024    1.07860077816254
S           2.78314306965040   -0.76813771255121    2.14727472043640
C           1.35845406071522    1.43160700908092    0.82627612025838
C           0.46353149387702    1.42690558392235   -0.25068285401501
C           0.28837017018304    0.05182776960143   -0.70493001766113
C          -0.50291983241867   -0.37949764318109   -1.73036668300751
C          -1.27812989169953    0.50692893154663   -2.50570832394446
N          -1.91484279115375    1.22210167510217   -3.13755767635606
C          -0.59880359415285   -1.74094065720721   -2.08472743041686
N          -0.68099720503604   -2.84630631641045   -2.37941628384476
C          -0.00051977434635    2.70202534905700   -0.58119585343857
C           0.53742896261804    3.67445455020149    0.23990731333590
S           1.63140272695269    3.00292643704076    1.43567409400301
C           0.29304618051586    5.07577460495425    0.19824305449248
C          -0.51158103010321    5.76783654744990   -0.65997205087612
C          -0.53150866707441    7.16281136933314   -0.42557503740805
C           0.29499299609394    7.55223027219935    0.66030780130925
S           1.07236842726191    6.13863619934012    1.35091095596669
C           0.40422137076970    8.87842663953322    1.04239516369846
O           1.14137946599161    9.42032097575317    2.04834888593975
C           1.94948593434778    8.59732788491525    2.85462197432761
C          -0.34741903126805    9.80986942678384    0.29654322139631
C          -1.17162876069947    9.42324379279339   -0.78925910042257
C          -1.28104067373187    8.09497813409460   -1.17264880354589
O          -2.01593516851756    7.55444026292609   -2.17634004811249
C          -2.80583783206587    8.37670898461385   -3.00212597085635
S          -1.94322059808895   10.83708039912757   -1.47820672553606
C          -1.17102511509587   11.90474683785164   -0.32395313392222
C          -0.37172715326883   11.20595128405692    0.53010634457043
C          -1.42332716716955   13.32465304679227   -0.37289693940839
C          -2.18111365970419   13.87681023430721   -1.41173641607788
C          -2.42622982058446   15.23240705319429   -1.50548584843089
C          -1.90398471521796   16.08672629827646   -0.54041067679048
C          -1.17214818990817   15.51727367685241    0.52864722317050
C          -0.91851906849551   14.17081303345810    0.62609684475208
N          -0.80858807356840   16.51141025898522    1.41351894208720
C          -0.03595772086250   16.32417318547725    2.60983906770998
C          -1.30341311743675   17.72684092065306    1.01604762018504
O          -1.09457141431634   18.75606709926175    1.62430691685936
C          -2.01753132799882   17.50384663071150   -0.28468643984434
C          -2.56426857150878   18.49982144721677   -1.04877471278555
C          -2.84293332699915   18.38901989214024   -2.51885339743292
O          -2.68029119621585   17.45389027252040   -3.27521737744243
N          -3.26876785843130   19.62307237079539   -2.93856885182326
C          -3.61405364873453   19.92015445837659   -4.30082677122928
C          -3.34537224972568   20.50516603892338   -1.88049723172805
C          -2.90977178762491   19.85840515367262   -0.69959462949868
C          -2.99234858793803   20.55692574224292    0.49999247505742
C          -3.44981194481912   21.85976910107454    0.49302876426855
C          -3.83391518453735   22.50839739870446   -0.68550197070024
C          -3.79087706662991   21.80467353095446   -1.89816959028782
C          -4.27930011576255   23.88103290545479   -0.65525721898045
C          -4.44858082787266   24.74724283061305   -1.69265401299010
C          -4.89660297083022   26.03480766579453   -1.30933722072131
C          -5.08718398774519   26.15214605509504    0.08991363548175
S          -4.67744447077469   24.63904431316831    0.87212308288944
C          -5.53024269236585   27.33649370953265    0.65932812371694
O          -5.76975589913634   27.61870518644660    1.96423530455913
C          -5.60013407047382   26.62734916999882    2.94933682751221
C          -5.77005509773513   28.40693212511662   -0.22670146990268
C          -5.57061899063878   28.29042843713138   -1.62683314486238
C          -5.13332602427148   27.10609565126959   -2.19533531317587
O          -4.89686909275031   26.82224815516909   -3.50396798258403
C          -5.06677142374239   27.81724136708511   -4.48457229488446
S          -5.96093679532637   29.81173864865336   -2.41001958501976
C          -6.37685093442537   30.55807185047923   -0.88162739895880
C          -6.22327938067789   29.68989156297565    0.16020895715269
C          -6.81299759802417   31.91205832666858   -0.84042498105713
C          -7.21039538845182   32.63273163016683    0.26951045938474
C          -7.57639431221484   33.93907061666199   -0.06188836629199
C          -7.45493123364397   34.21185654299206   -1.42992831372292
S          -6.89256739566642   32.86276325061051   -2.31256319413484
C          -7.85055666354103   35.56113342741113   -1.65697129272524
C          -8.22029685213640   36.13128155235026   -0.43324353085512
C          -8.06409085336178   35.13784323025902    0.61101209538579
C          -8.32031663024216   35.28439152071751    1.94389908321234
C          -8.79601134860874   36.49452423230973    2.48945201535374
N          -9.18223842420628   37.47586656619753    2.94039317601307
C          -8.12937647475286   34.23522240486981    2.86616077372489
N          -7.97566276480637   33.38632049659223    3.62216311283402
C          -8.62811185879456   37.47338235844412   -0.56662098024723
C          -8.56076214650911   37.88584957897195   -1.86146990937336
S          -8.00177217845506   36.65963505409123   -2.95427554935890
H           2.79239438831086   -3.16715755538095    1.73182469134154
H           1.10435899927967   -2.91978974873450   -0.25241499925209
H          -0.69211824184505    2.91956554848230   -1.37345192486745
H          -1.08410766223862    5.31448251169547   -1.44678440397597
H           2.43143724913703    9.27187105573809    3.56127239202357
H           2.71572476379186    8.08282146330836    2.26882904687674
H           1.35715500321190    7.86225772378862    3.40591706718471
H          -3.27942741911094    7.69885798022291   -3.71102598886906
H          -2.19921316983077    9.10390377257933   -3.54793289259874
H          -3.57777164943196    8.90025243227767   -2.43219634413183
H           0.21119290528282   11.64600736024592    1.31693676114485
H          -2.58020344874144   13.21765451578796   -2.16870006155758
H          -2.99966701221647   15.61698690756694   -2.32989623949590
H          -0.35714597431119   13.77279744887025    1.45495564395168
H          -0.55307747730012   15.65762180838860    3.30366708720640
H           0.08953552034362   17.30281531920386    3.07208369901557
H           0.94433023318901   15.90700289991142    2.37101781952358
H          -3.43435540453855   19.01860602425089   -4.88568616240178
H          -2.99333181523267   20.73198781656991   -4.68497443317756
H          -4.66651643452495   20.20156508877636   -4.38000560145555
H          -2.68784757778870   20.10173790652417    1.42540529218525
H          -3.50326547803188   22.40354109932011    1.42474572385130
H          -4.11886243360974   22.26681656451965   -2.81464119476874
H          -4.24796982675238   24.51050170644213   -2.72053474876934
H          -5.87720058765003   27.10652393557710    3.88739372147343
H          -4.56233161562765   26.28949417288672    3.00936077010398
H          -6.25375178294224   25.76864417143887    2.77546926951617
H          -4.79638378655864   27.34127215149029   -5.42637167352830
H          -4.40859101459937   28.67280597528183   -4.31212999709054
H          -6.10348485511941   28.15992761304547   -4.53931465140021
H          -6.42035453653396   29.93858094904828    1.18571757886043
H          -7.23111864860443   32.22011695618160    1.26076018023414
H          -8.95281371125915   38.10016274524172    0.24367842493631
H          -8.80718304073936   38.84973871595560   -2.25926381505433
