86
 SCF done       -199.516130061538          0.000682035364
C          -1.03358684129853   -2.69311911827420   -2.48102715621345
C           0.01400767669979   -2.37138587345850   -1.66999594478786
C          -0.01351281514806   -1.01009682801103   -1.31787370877634
C          -1.10241239698162   -0.33143173837927   -1.88411016032322
S          -2.07732138878379   -1.35897913556845   -2.83747609336509
C          -1.05865765595446    1.03146893833866   -1.48101463324162
C           0.06998330486314    1.20315113403260   -0.65541813058978
C           0.76164113477601   -0.07171094036586   -0.52673057308961
C           1.89601037545717   -0.32451060480174    0.18800696629260
C           2.56355898328144    0.67716217630415    0.92419374001819
N           3.11666895086495    1.48095484950084    1.52653258311328
C           2.47931809589605   -1.60785939999188    0.24146712424624
N           2.95777623853112   -2.64890019550082    0.28736357983477
C           0.20903474497374    2.50708448897836   -0.20116976446700
C          -0.80435240026233    3.33399348930809   -0.67166059600048
S          -1.94419458537608    2.47408766505936   -1.69459542500023
C          -0.96711141001627    4.71723069062277   -0.39431929774053
C          -2.04758560287334    5.46119788145101   -0.92219422953500
C          -2.24607574273789    6.85646162423929   -0.64828743112458
N          -3.32117100619948    7.48296209220864   -1.17265672952561
C          -4.13552756144460    6.82239580357091   -1.92169436823142
C          -3.93191306659050    5.44356169039616   -2.21166289256426
N          -2.92235907074163    4.80777542339325   -1.71464862065216
F          -4.76996523902484    4.76688391863242   -2.99168713368536
F          -5.18919865550200    7.45964165835507   -2.41998099646065
C          -1.35204763843308    7.57530608411491    0.16734988427279
C          -0.26565250202039    6.85152988203153    0.69813333117111
C          -0.07255349576349    5.44412249124403    0.42427651158808
N           1.02047481832968    4.97497333649426    1.02903311919917
S           1.72517103980960    6.16099510666698    1.84308134200364
N           0.69895451794508    7.33315782365194    1.48479155932003
C          -1.52545170385312    8.96836631329763    0.46023375498278
O          -0.69672315835994    9.54708927233407    1.38187109080582
C          -1.09757630491987   10.83042153817455    1.44882594557340
C          -2.18412461397767   10.98689786746427    0.53414608434594
N          -2.40087992861249    9.77586399610722   -0.05583396966524
C          -2.83379841711494   12.20012071822005    0.36412089119262
C          -2.34969017653717   13.23313245789955    1.15135885326337
C          -1.26038307778327   13.04701428576951    2.05871149709265
C          -0.59932103077984   11.84841401817298    2.23783800812307
O          -1.04000664812505   14.22676162145562    2.67178369617374
C          -1.97674724558174   15.07952059579825    2.14271038785217
N          -2.75269066198185   14.53394603473765    1.25353079622442
C          -2.00488299769322   16.41882897629212    2.62509756043844
C          -2.90853024843227   17.32804582272918    2.19490946215688
C          -3.01086719012286   18.67126157867518    2.66520646867742
C          -4.02592555646502   19.51700961724664    2.16166233216389
C          -4.20394651681126   20.86272123604216    2.62291875635067
N          -5.19673531954108   21.61907143689178    2.10936655308152
C          -5.97485611020417   21.12177156967643    1.20532157402671
C          -5.79654905034030   19.78758302589113    0.74712862683212
N          -4.86093502593980   19.03187295459528    1.21469853752191
F          -6.59965426098084   19.28290863698142   -0.18502665491244
F          -6.94190594409687   21.89512645655002    0.72064127147945
C          -3.38047516260202   21.44546343262767    3.61182533480019
C          -2.34758198801593   20.61330892932292    4.10410766842300
C          -2.16783432252511   19.25433259919517    3.64007216105362
N          -1.13341133915455   18.66957776550882    4.25025454404234
S          -0.46518485563184   19.69935928522485    5.28009456354127
N          -1.43796148757544   20.94296307052839    5.02276676350357
C          -3.59254634552718   22.77014414164473    4.07797559847276
C          -2.86355458062907   23.43410236346103    5.05738351709961
C          -3.34481925749622   24.71587992511807    5.28602213583904
C          -4.44949440953446   25.03625520202833    4.47351574042738
S          -4.89312031691793   23.75884227659147    3.43256201440109
C          -4.85852677141406   26.36011400907375    4.79286704657709
C          -4.02051876538987   26.86697075718313    5.79669431933067
C          -3.04066134281493   25.85363753498002    6.14262774326278
C          -2.04663246053301   25.94068416786077    7.07328794754930
C          -1.84715805065757   27.09935947568892    7.85274899998416
N          -1.67984699619449   28.03989469817730    8.48716591519047
C          -1.15267491168939   24.87839278261426    7.32414494374571
N          -0.41673026056454   24.02489001985439    7.53632083782687
C          -4.36330289058699   28.17834452006431    6.17233635532004
C          -5.43333064392585   28.63267108670661    5.46041285761260
S          -6.05152335937951   27.48615798348281    4.31964393808172
H          -1.26404161902791   -3.65157074258054   -2.90172514408787
H           0.75869214433294   -3.07619000974114   -1.34820036090081
H           0.99094124505259    2.87262016497270    0.43851225575040
H          -3.65286472457824   12.32626329392206   -0.32072004582389
H           0.21846228201265   11.71825182211555    2.92491767719148
H          -1.26707695669646   16.66962534720366    3.37196452058404
H          -3.63079004120772   17.03593198719603    1.44651036090460
H          -2.03158415647398   22.97471527547099    5.55802406181124
H          -3.85557209962443   28.75710488286875    6.92207568096556
H          -5.90955517306942   29.58994750636830    5.53482266807412
