104
 SCF done       -176.787224244353          0.000543980468
C          -1.48263123143830    8.73317573164947   -4.48857932050891
C          -1.25946376046436    7.39085586597724   -4.51512412624924
C          -1.42194643251940    6.81807852279945   -3.23849908052620
C          -1.76946185343479    7.76328527208589   -2.26928081205945
S          -1.89556921269026    9.33710162085508   -2.91622018453525
C          -1.91049804598040    7.09780269843108   -1.01410356814006
C          -1.65340207671203    5.73794291136326   -1.20495040935666
C          -1.34304706491673    5.51125542812018   -2.60811226247617
C          -1.05207953260393    4.31697871776328   -3.20224700379026
C          -1.04241383228762    3.09863080315012   -2.49123860572308
N          -1.04846549396167    2.09444323071737   -1.93667042562530
C          -0.75928263410776    4.21519595680470   -4.57750956273682
N          -0.52120161198591    4.12497354053870   -5.69613022099945
C          -1.75235257886965    4.99168202433396   -0.02266152478981
C          -2.07981922901540    5.77807252707134    1.05340356660648
S          -2.28183392066025    7.46317247588392    0.61224395481134
C          -2.27078979019608    5.36988769919753    2.41690754347774
C          -3.00493047509670    5.99906528662042    3.38840278326244
O          -2.98238123706473    5.30193716158902    4.53287988120239
C          -2.24268736351633    4.20659348127603    4.31759824090394
C          -1.76766719749764    4.17653520035429    3.03742969200869
C          -0.82748048471009    3.19423791080359    2.44684606597690
O           0.19829277542683    3.54361546382919    1.88806015554875
C          -1.20709953686992    1.80293008040422    2.57465763594568
C          -0.49886793953163    0.71508479044777    2.10720554049423
C          -1.12491753262712   -0.50504556682092    2.34347674509783
C          -2.34046726647391   -0.38040281702596    2.99006854164647
S          -2.69829108701647    1.29523470601207    3.30470525221035
C          -3.26543113617611   -1.36538016888230    3.44651431415688
S          -4.74667882782890   -0.79482460187201    4.15765196293112
C          -5.26912985413158   -2.40782574825097    4.54463351515376
C          -4.30093875315551   -3.33102379168736    4.17463347506624
C          -3.19997182444999   -2.75171879233457    3.50802382182139
C          -2.09787050613161   -3.57353674073434    2.88956267449530
N          -1.92079800617638   -3.18745231444774    1.49375714300067
C          -2.38605001897957   -5.07661551073054    3.03322906316404
C          -2.93493122805433   -5.39287033707945    4.41173869260604
C          -4.33887898428193   -4.78674539054923    4.56387068064647
N          -4.86212608673173   -4.92350231943783    5.91546879290775
C          -6.57817305351419   -2.52575565004537    5.08578988393713
C          -7.33687191290653   -3.64345539399560    5.16195416233885
C          -8.66501812403783   -3.64881819568959    5.65432471437577
S          -9.42099772816186   -2.20715568454158    6.26242986508270
C         -10.90566329989805   -3.05406830643617    6.62283768999023
C         -10.77725637730524   -4.40982410834761    6.32157230144307
C          -9.53631287832174   -4.72888274408906    5.74639273870511
C          -9.18246631431520   -6.10945134181777    5.25476976879332
N          -8.47511334743962   -6.03952848526348    3.98042220361400
C         -10.45087172727834   -6.97229660042999    5.18143371359763
C         -11.22962321771582   -6.86325418025725    6.48047558493246
C         -11.81760382874970   -5.45184257302854    6.64490136707033
N         -12.34474451771425   -5.22285652880241    7.98240941855979
C         -11.97316544699414   -2.25148844566036    7.08503473063333
C         -13.28878678551555   -2.59060455206997    7.19875811454869
C         -14.27671500853926   -1.69388030819548    7.63104611152449
C         -15.60824898201459   -2.01204179560235    7.71846916004695
C         -16.66767665566478   -1.17388820296248    8.14558583447184
C         -17.89520188966911   -1.75800397673835    8.11832073776391
C         -17.88403915268290   -3.09989564073970    7.66354738015620
S         -16.24565563697103   -3.59214252155148    7.28065868717637
C         -18.95515803563774   -3.94802325701146    7.51072104436378
C         -20.32402398052357   -3.67306883116610    7.77699465323346
C         -21.16191070204724   -4.70313045838800    7.52231364011229
C         -20.51640531742917   -5.88571568553716    7.03013707095818
S         -18.77381191163276   -5.59065268113444    6.91983188120238
C         -21.08485883091830   -7.05111810682058    6.69067047772193
H          -1.43089880597521    9.42592677353282   -5.30434728907857
H          -0.99270787580742    6.84736061794295   -5.40301537954880
H          -1.59531436623354    3.93166783117420    0.04516396655210
H          -3.56627750320862    6.91224013397834    3.36685735220330
H          -2.09302488464041    3.53931314134824    5.14299027144398
H           0.44505744978045    0.82955774687569    1.60514656651952
H          -0.74188667343238   -1.44988327872962    2.01331358780931
H          -1.15455513271515   -3.34047855324459    3.40612991175350
H          -2.80072289378790   -3.25898923424314    0.99491390633478
H          -1.25500224286356   -3.80726731560536    1.04461159328640
H          -1.46756636210079   -5.63715193715334    2.84358044127140
H          -3.12328296065748   -5.37146736242905    2.27996515005318
H          -2.27440678000391   -4.97157182181486    5.17540025998446
H          -2.98774556286213   -6.47348073210968    4.56595552714099
H          -5.02887404458651   -5.32587027665119    3.89838303699242
H          -4.29721913422881   -4.39018161006368    6.56691513785296
H          -4.83993435521707   -5.89618166743051    6.19971255016832
H          -7.01915790824593   -1.58496070008253    5.39743071911867
H          -6.96560212734239   -4.59486067797781    4.82604919458608
H          -8.48254619178611   -6.56636857001960    5.97078846167446
H          -9.03983364879786   -5.54535049075888    3.29709293037148
H          -8.31287368802778   -6.97768599320602    3.62949446219330
H         -10.17335647960263   -8.01149405347421    4.98638656692077
H         -11.07481462905426   -6.62575681156056    4.35206105083176
H         -10.55983176106176   -7.07208430018504    7.32054972703748
H         -12.04142060313621   -7.59422346823023    6.50564511593414
H         -12.65902253797090   -5.34223719213886    5.94461847999495
H         -11.60175376161942   -5.28715544224924    8.66919325691421
H         -13.04770990104502   -5.91747776606015    8.20756038943657
H         -11.69526086372594   -1.22884722252784    7.31445408653075
H         -13.61333583656412   -3.58824731203250    6.95633247398735
H         -13.98421900240380   -0.69039676966349    7.91302059231287
H         -16.48329191598501   -0.16132363276131    8.45997304133855
H         -18.80631536742081   -1.26601224716830    8.40851212521784
H         -20.63906343591649   -2.71425626439195    8.14951669051559
H         -22.22810969851457   -4.67892658927778    7.66226699868520
H         -22.14879918331307   -7.18656058046188    6.77203355139516
H         -20.50439379337194   -7.87927712306831    6.32796793028014
