110
 SCF done       -218.561757716945          0.000705839318
C           5.97888340973308   -2.49018202981799    2.54383538943985
C           5.84145566224847   -2.29484363749243    1.20431829616871
C           5.39483111823989   -0.98933522465337    0.91940999966251
C           5.20527673182905   -0.22375890947168    2.07605698756361
S           5.57153399616152   -1.09737119383135    3.49516071020809
C           4.75550012147891    1.07474335875724    1.69648646812261
C           4.66684690654031    1.11677100191495    0.30013456040277
C           5.06373311249139   -0.17925931766717   -0.23602962677532
C           5.10691253865768   -0.54136506443863   -1.55213631058052
C           4.75350471255137    0.35203205801124   -2.58367169144212
N           4.46723506921801    1.08032065967567   -3.42289990777213
C           5.50386613594370   -1.82843675835135   -1.96844108018845
N           5.82526231390348   -2.87376362882835   -2.31400015635027
C           4.23104935769260    2.35259412161190   -0.18164416061653
C           3.98659365794181    3.24954189387961    0.84039590810759
S           4.30096081260750    2.55500589406619    2.41861694941903
C           3.52546253716549    4.59246134488614    0.71557873467647
C           3.27982782501313    5.25882865486307   -0.45348926080977
C           2.81106725392001    6.58656341226544   -0.27279534015449
C           2.70998931690980    6.89921168783180    1.10791870668084
S           3.19761146918496    5.57444735078532    2.12508444939563
C           2.26851153821375    8.10116585826848    1.64623417196332
O           2.27384042302030    8.12509709578086    3.00519244773742
C           1.98558041583471    9.30128014813488    3.72148323428204
C           1.87815213081693    9.09601179085530    0.73142766903780
C           1.99533867653052    8.78901824037450   -0.64749897341820
C           2.44466776609517    7.58974759583817   -1.18677009946754
O           2.44911810825734    7.57195182984949   -2.54622436519516
C           2.90329271196208    6.45639399209537   -3.27037422692338
S           1.48143207210958   10.09579111508009   -1.66677558529212
C           1.10504397135054   11.06464681365521   -0.25748266066582
C           1.34634535011318   10.40498504775098    0.90896755259727
C           0.48481556648718   12.34675640285156   -0.45415104430684
S          -0.84576321948967   12.37353930956681   -1.55649854908705
C          -1.20400053205896   14.03553594453301   -1.24638823034748
C          -0.29875025201196   14.55842081409734   -0.31332320622542
C           0.69532072522622   13.60410484073719    0.10768920587280
C           1.75718129667847   14.06219432282922    0.94256360175666
C           2.97176185146217   13.24544894432132    1.26147104389314
F           3.39053535668043   12.46467384489045    0.25625432617495
F           4.02719275804454   14.01850985908645    1.57543398803643
F           2.81193259500754   12.43353117540486    2.33401680574754
C           1.72125069278188   15.34194653615820    1.43076665554099
C           0.69134364403225   16.23428463125186    1.11140060385249
C          -0.29764375441886   15.87904781781662    0.22550629692467
O          -1.28784310413039   16.70642948897340   -0.17743593877381
C          -1.33187749974194   18.01994059042448    0.33407524773863
C          -2.26641634232562   14.67699624499951   -1.93162976670348
C          -3.07937734728045   14.03842895475217   -2.80715780446369
C          -4.11078205123290   14.65428134752187   -3.56549042263095
C          -4.48411682384563   15.96680620512315   -3.65757611165623
C          -5.53588850369963   16.20441897218041   -4.57045065169614
C          -5.99893264773580   15.01803226785996   -5.19890288146377
S          -5.08438653545541   13.64288910210981   -4.61481096667365
C          -7.01633140558257   15.05058801831884   -6.13827231021820
O          -7.58172506732871   14.02267199329744   -6.82273485004421
C          -7.16459886116728   12.69880293175033   -6.58808945670813
C          -7.54522927821343   16.32053936943569   -6.44694586260555
C          -7.08098653730538   17.50822319928914   -5.82376462262127
C          -6.07792921661164   17.47362221265101   -4.86994704453049
O          -5.52587006649255   18.50148621587443   -4.17306771476192
C          -5.94920466098042   19.82378395657571   -4.40742973785540
S          -7.94790163585675   18.89588427711906   -6.46443000102784
C          -8.88718207312708   17.87915486856170   -7.53805161008692
C          -8.56046908811024   16.56231782230570   -7.40025786092057
C          -9.83740033357523   18.46031607564294   -8.42069440352052
C         -10.12707804498068   19.79898309721158   -8.58843359856403
C         -11.10586927161534   20.00278158089483   -9.56489007608506
C         -11.56181216729099   18.80988046008612  -10.13740616418149
S         -10.79076335926099   17.43402351685260   -9.48097765614158
C         -12.54564846845774   19.12652633784716  -11.11772746045895
C         -12.70316116615832   20.51648591554778  -11.16032195244851
C         -11.80804301756665   21.11760221837834  -10.19030440451037
C         -11.64662069281144   22.44539748863628   -9.91809318242750
C         -12.37729534896561   23.44516644805377  -10.59275210127037
N         -12.96752823432390   24.26323687874635  -11.13858677697950
C         -10.73681944493680   22.90863366778071   -8.94527527324777
N          -9.99937962245008   23.29242733416382   -8.15480474189907
C         -13.66191964597463   20.91971364373957  -12.11065782937443
C         -14.20102493573683   19.84971473501767  -12.75598369774884
S         -13.56233409710046   18.32520788672044  -12.22975566322226
H           6.29938953723381   -3.37842720971976    3.05008451928685
H           6.04895276069469   -3.04754319819734    0.46579923584310
H           4.09481126581469    2.58765353157326   -1.22044981580960
H           3.43548239464302    4.78837790900478   -1.40387793405704
H           2.21307846638761    9.06384442715121    4.76039807462925
H           0.92724224528085    9.56730154943637    3.64164179820607
H           2.60942539695869   10.13694973542364    3.39765642160030
H           2.83101174777779    6.74899889091396   -4.31750166117688
H           2.26936550962524    5.58115702276807   -3.10077027702643
H           3.94524060051247    6.22068350344043   -3.03621802582565
H           1.10664164758101   10.84492818578694    1.85694826426866
H           2.51766635988303   15.69214062294516    2.06885230678148
H           0.72096793538182   17.21742550610194    1.54912111579568
H          -2.20243069486611   18.48330651271858   -0.12743862049437
H          -0.43474163892366   18.58447639230314    0.06444287211962
H          -1.45491912615501   18.02205005097471    1.42077910875231
H          -2.40111182488868   15.72755584138338   -1.73674314763145
H          -2.94361965644059   12.97660346463132   -2.97249688837807
H          -4.01984071421086   16.76233231266205   -3.10608010627761
H          -7.79091430073843   12.08303310158252   -7.23225843193061
H          -7.31907482278554   12.40426487330402   -5.54692360246975
H          -6.11564980284453   12.55035956373589   -6.85695466209321
H          -5.35117078092511   20.43979696810096   -3.73706590121561
H          -7.00775245325184   19.95889904528026   -4.17142660226696
H          -5.76378722388653   20.13129505389089   -5.43962857565328
H          -9.01964269649393   15.77293219894143   -7.96703298932805
H          -9.63901067888420   20.57268292967435   -8.02330161632549
H         -13.93975140543104   21.93865140360628  -12.30900035688102
H         -14.94866540215523   19.85177484140425  -13.52355943943593
