106
 SCF done       -206.055535940057          0.000465555369
C          -5.52741658772974  -14.45003087933000    5.62890831069133
C          -4.28839082345303  -14.92568158439180    5.95660140749276
F          -4.15890836539410  -16.13145027317875    6.52823752955035
C          -3.13520238531625  -14.15953978953102    5.69831703415299
F          -1.93160462733074  -14.65083121519991    6.02885792405727
C          -3.23655293273761  -12.92706426702008    5.11584330034441
C          -4.49868006033238  -12.41043032011915    4.76585390377134
C          -5.66606079655757  -13.18423484051825    5.02599536619729
C          -6.94494486827550  -12.68683621667645    4.68075937674834
C          -7.05175361899380  -11.45601811107053    4.09145053998176
C          -5.87866349551381  -10.68987126525733    3.83646404235198
C          -4.63240940671836  -11.14062044227605    4.16004683367740
C          -6.26758005500207   -9.41830356604869    3.20161753661527
O          -5.51747994441222   -8.52399155058551    2.84171570589153
C          -7.72344760590294   -9.45541755368543    3.07875557365622
C          -8.21317832970952  -10.69528174149410    3.63038094717920
C          -9.52177858295518  -11.10039366730777    3.73316266713228
C          -9.92192717526851  -12.33450276396663    4.28474617104395
N         -10.30761428431465  -13.32983446185317    4.70783081905971
C         -10.64444888893703  -10.35748715556556    3.31699556607872
N         -11.60757171760037   -9.80809405248746    3.01405961560395
C          -8.48587337295161   -8.44818261095130    2.52966303303713
C          -8.09672054033179   -7.20792409213426    2.04057073246031
C          -9.07207019467768   -6.28767438382916    1.57115490159517
C          -8.54058366603161   -5.04909353046598    1.14425351136201
N          -9.34684783909685   -4.09183058090836    0.68112565299818
C         -10.63815434694297   -4.33971253940584    0.63221289936061
C         -11.16547514096654   -5.59293844654563    1.05837230665015
N         -10.38323767439699   -6.54226738611877    1.52254953387021
C         -12.62035419691332   -5.90145943027638    0.98152227379494
C         -11.52258252039199   -3.26743095474409    0.09558676018304
C          -7.12682537962239   -4.99997809695115    1.25144811669394
S          -6.51397766135478   -6.50319865153752    1.91206577031089
C          -6.23193568587746   -4.00325668029029    0.89368824382836
C          -6.48853167679776   -2.73223780205032    0.40214723234727
C          -5.47893413271657   -1.81047492492954    0.03875741715208
C          -5.94452332014956   -0.59660442915089   -0.38730362375406
C          -7.34534547428926   -0.51561328782874   -0.35046525397896
S          -8.05800091112669   -2.01939225344882    0.17915393291733
C          -8.19900693356801    0.54988360010802   -0.63033334658505
C          -7.96523043263373    1.84472683632666   -1.11373394302612
C          -9.10227754529933    2.61007043417234   -1.20211626436620
C         -10.26998843916412    1.96090412250508   -0.75824945005834
S          -9.89667991180056    0.32479782479018   -0.29774209795687
C         -11.53742273562226    2.50491005211032   -0.58335473542273
C         -12.57512297311212    1.89519720905333    0.09352268869059
C         -13.80279379588064    2.49835239070588    0.48563974407740
C         -14.56926864996277    1.69740109000949    1.37037504494087
N         -15.73514055162839    2.13128256867928    1.86320194028149
C         -16.13456687724493    3.32645913545422    1.48614122459011
C         -15.36141343105726    4.13153592344709    0.60022233184424
N         -14.21104126554467    3.71384699911467    0.11295540109624
C         -15.82148221049865    5.48663028693618    0.18142653274288
C         -17.43865203192447    3.80332932622214    2.02815848478787
C         -13.94853962255180    0.46793834146634    1.70091497372754
S         -12.48526592203508    0.29326805349408    0.76571820108705
C         -14.40457721858190   -0.47888180643400    2.60725882222945
C         -13.73036706051783   -1.55337820931121    3.15927724271284
C         -14.50587863275766   -2.70290101835053    3.67060645805236
O         -15.70960694906401   -2.77960802436737    3.79615305157193
C         -13.50805719907432   -3.76310809390745    3.94759448570075
C         -13.70592822852290   -5.03350081318512    4.40441034492049
C         -12.58531119931589   -5.86289719974081    4.64450054519957
C         -11.27865927998794   -5.35467502286575    4.39450105909233
C         -10.16391186345268   -6.16962818874686    4.67205836635997
C         -10.34176843728602   -7.42464511483347    5.17958568632565
C         -11.63237095012023   -7.92725383600548    5.42739394676208
C         -12.73416753401921   -7.16453198277308    5.15930357782226
F         -11.76358309154482   -9.15044647209591    5.95862755630817
F          -9.27506209136670   -8.19650705267613    5.45913494746015
C         -11.10658840106253   -4.04027464771076    3.90154998557860
C         -12.20483912192181   -3.25143365992969    3.68964760488344
C         -12.33059755994827   -1.84470612567504    3.30248580216141
C         -11.28868470773987   -0.94197890824284    3.35351130830525
C         -11.46888673833549    0.45206165962413    3.42316898138732
N         -11.56914073147202    1.58865686906750    3.56308047989384
C          -9.93302111193839   -1.30280309423518    3.43231641455988
N          -8.80649871665907   -1.53270396621492    3.44662122682366
H          -6.40051444741911  -15.04954048725613    5.83426605369494
H          -2.34383611818646  -12.35225056652642    4.92500004870857
H          -7.80786225109425  -13.29695483997112    4.89251019238830
H          -3.75994805779323  -10.53837366367137    3.95675819971844
H          -9.55776458790977   -8.59063487033846    2.46330771315080
H         -13.20010535152379   -5.18216686419503    1.55723143693580
H         -12.79058061929890   -6.89976558634934    1.37463103578287
H         -12.96087612320125   -5.85586270982468   -0.05199559624376
H         -10.94496836744785   -2.36169363118228   -0.06050989449744
H         -12.34158410439034   -3.06328968215772    0.78172346967741
H         -11.95552886440161   -3.58222142302705   -0.85320377042057
H          -5.18476071158712   -4.25237372227351    1.02195181785417
H          -4.43638363640176   -2.06846183378855    0.10577229078713
H          -5.31876251894932    0.22202547093226   -0.69549265282173
H          -6.98210847275564    2.19088624255198   -1.37817782318296
H          -9.11971338475345    3.63042149692963   -1.54193329247351
H         -11.71397044686184    3.51912620585346   -0.91445469574205
H         -15.93456350680406    6.13387887672867    1.04987944177736
H         -16.78699837014243    5.42426348004301   -0.31847400165734
H         -15.09196037027038    5.91970807370028   -0.49670429646040
H         -17.85520850546273    3.04047399406678    2.67923769029368
H         -18.13667110133474    4.00792246152244    1.21760555600116
H         -17.30055120359057    4.72404770152127    2.59290710779055
H         -15.45355188334473   -0.39684446376137    2.87552516886621
H         -14.70330287308699   -5.39666366077739    4.60037194368955
H          -9.16526391674984   -5.79674896897806    4.50498667563583
H         -13.71731177815896   -7.56277991792937    5.35374100110872
H         -10.10579998515735   -3.68433079116704    3.71394094042738
