95
 SCF done       -192.484500928484          0.000437325803
C           6.74667727927374    6.94452852839234    5.73884551908540
C           6.72302902140961    7.51799459205950    4.50453481275037
C           5.53538880287389    7.20153213467252    3.81655190472057
C           4.68301292575706    6.38505188081463    4.56524894016229
S           5.33173350901684    6.00855712878625    6.09724170805770
C           3.50919728932951    6.11374726408011    3.79635949321111
C           3.64177680971789    6.76293093387024    2.56365215126590
C           4.91125476939849    7.47405791325328    2.53366117967253
C           5.40064863852035    8.24250680685262    1.51717976315242
C           4.68584535084663    8.43823664516807    0.31780602022791
N           4.10546775573579    8.60164207030172   -0.65821528278533
C           6.64662101383231    8.89726335476469    1.59886864373979
N           7.65899547870047    9.43311611515596    1.65833211913419
C           2.54159419343270    6.55145616085278    1.72937500552780
C           1.58733454809094    5.75137077852857    2.32346610225161
S           2.04270165203874    5.25572832094099    3.93935709531913
C           0.34669488156438    5.36877141168559    1.70842610989897
C          -0.17983363802165    5.92117985517174    0.56530222707580
O          -1.33656193130861    5.33106839448655    0.23108725561049
C          -1.57532941120818    4.37745487071873    1.12748917773155
C          -0.58228835972772    4.33150974552496    2.07529264596199
C          -0.54715114008976    3.47000727480306    3.25816011878543
O          -0.01995633860094    3.81057670392328    4.30688055322647
C          -1.20432355810878    2.17721046245736    3.13032964254162
C          -1.45310748337097    1.40897473872782    2.01263343111668
C          -2.04169976381261    0.18464865065436    2.31116271622517
C          -2.25835306385305   -0.00043775462879    3.66762374626889
S          -1.68404996432932    1.35898478297726    4.58145504542591
C          -2.87574262303587   -1.12012991567024    4.27389024283586
S          -3.37471099146987   -2.47097699209788    3.29486182369877
C          -4.03984451865797   -3.34832526203083    4.65712969362942
C          -3.86690330689428   -2.59659010058096    5.80453017221278
C          -3.20248324823979   -1.35128312949499    5.60770632389676
C          -3.02605562220633   -0.64934206592258    6.82480984390407
C          -3.53276737200915   -1.33520718818665    7.88632459675781
C          -3.53348192752775   -0.96473201806021    9.30481369369143
O          -4.01850624885889   -1.64313467343745   10.17628624585713
O          -2.92542767624706    0.20987918955313    9.51245552153654
C          -2.86773573765053    0.64222713007993   10.86506688470675
S          -4.26432125935501   -2.86940381179673    7.46849324872871
C          -4.63211454796813   -4.62751847499518    4.47713111453936
C          -4.52843204048075   -5.31518926920084    3.28623141116603
C          -5.07497057630315   -6.56781747767845    3.04413825313590
C          -5.86447162507484   -7.26308681592997    4.06139306943465
C          -6.08969509793830   -6.77515299069130    5.30264704447558
S          -5.48966770614870   -5.27012831179746    5.86620937828874
C          -6.26058108251760   -8.48742333200178    3.45745458053202
C          -5.73781493889741   -8.57999958353001    2.16418635594571
C          -6.11520838648388   -9.78769101032389    1.53465232744701
C          -6.88880778361005  -10.55529388406277    2.34687486648730
S          -7.19445507938245   -9.85841348500498    3.90000616469374
C          -4.98024874974409   -7.38152907495162    1.88838571727507
C          -4.23694760368257   -7.05552171291622    0.74441550242452
C          -4.00461588553562   -7.87888499507944   -0.32547502874310
C          -3.19198692029269   -7.48113868664127   -1.39381762954330
C          -2.84775911062053   -8.28239185383638   -2.45833468866434
C          -1.97613428474984   -7.93163396774420   -3.55445298484915
C          -1.40044267867911   -6.70747177344402   -3.80104932582462
C          -0.55940813739823   -6.43504399633682   -4.89832071049744
N           0.13053851368103   -6.14463843939045   -5.76966842234441
C          -1.56273241029003   -5.54944860551070   -3.01568392033915
N          -1.64156890793107   -4.56032131899161   -2.43497196486397
C          -1.80708559565349   -9.12120748086742   -4.38575354910204
C          -2.58682382507581  -10.16994622898085   -3.84081262770056
C          -3.28090888285371   -9.68332883775958   -2.63014430453239
O          -4.04452640420150  -10.32802073926550   -1.93654339887088
C          -2.63085701635150  -11.42581418796525   -4.39343455715445
C          -1.86286128712523  -11.66237570880447   -5.53885381298366
C          -1.08621979744982  -10.60970053394609   -6.07588487751296
C          -1.04571915468887   -9.33700520629552   -5.51860934623116
S          -0.20772779461964  -11.11915578244098   -7.48673609697968
C          -0.88617052308909  -12.71817080268054   -7.33545617929915
C          -1.72788823843981  -12.86515311174892   -6.28531411440070
Br         -0.41622970835512  -14.04436569078546   -8.57662155063821
H           7.51834481890506    7.00949517687304    6.47945946224363
H           7.51483548200239    8.13125468565656    4.11481809921168
H           2.44220752021632    6.94534783456063    0.73527057875142
H           0.16377588959849    6.71980916433101   -0.06009670930731
H          -2.48997520353618    3.82547302164055    1.03514311987328
H          -1.18724513223914    1.71487081041749    1.01741790737438
H          -2.31100964916829   -0.55277964965361    1.57582506353696
H          -2.54611713574496    0.30641917775613    6.92065840894665
H          -2.29236548715758    1.56399844698735   10.86260946896812
H          -2.38237766092291   -0.11478012696627   11.48436567386035
H          -3.87433235373656    0.81776287572587   11.24996771500971
H          -3.96620293377471   -4.83000316808230    2.49923861668753
H          -6.66274379138121   -7.31132474346765    6.04242543237375
H          -5.84556176152189  -10.09243836159539    0.54055523201207
H          -7.31360836153936  -11.51533338445594    2.12773285324039
H          -3.77965753463621   -6.07299307960236    0.72756395409033
H          -4.41755862387692   -8.87226109271265   -0.34791738863035
H          -2.79036851381730   -6.47667669154581   -1.35425481008097
H          -3.23457327969504  -12.20417583179863   -3.95356688387085
H          -0.43583561742245   -8.57016533118798   -5.96584305150166
H          -2.23239613686432  -13.78297728919819   -6.04420557483016
