96
 SCF done       -190.882919016315          0.000682331417
C           0.05030569106829   -2.71742697561253   -2.23704893965880
C           0.84699642942599   -2.28737494001331   -1.22086321109470
C           0.75625912014426   -0.89150527490917   -1.05407683088807
C          -0.12306907131468   -0.29984614868871   -1.96779734680211
S          -0.82950595350728   -1.44338878719514   -3.01827608074885
C          -0.15409954972784    1.10546395812512   -1.72749467812554
C           0.70698493161262    1.38835678270344   -0.66076189594501
C           1.31019070232284    0.14340067820975   -0.20190329523959
C           2.20830676550804   -0.00532876641492    0.81546424879803
C           2.66672630498994    1.09270705116704    1.57155445967781
N           3.04126672326060    1.98694456405968    2.18508123628134
C           2.73548207178776   -1.26175883885982    1.17846543462626
N           3.16942391483570   -2.28038035324203    1.47786399601469
C           0.74976756193725    2.74769370628158   -0.34104816555549
C          -0.07271355881338    3.49683447190440   -1.15926789211981
S          -0.91012386053181    2.50777588118046   -2.34019055094749
C          -0.28358290828635    4.90676320200672   -1.12535551141670
C           0.26375630816207    5.79548305820175   -0.24151787074177
C          -0.13472243920589    7.14194120478386   -0.45726856162711
C          -1.01840514841966    7.22982904568429   -1.56451988667152
S          -1.33324511507668    5.68152406894547   -2.28929096091817
C          -1.59784428183784    8.39025679971496   -2.06243807691581
O          -2.41122474276952    8.18382254136765   -3.12945141677840
C          -3.13017647901720    9.23451206226858   -3.73045992500594
C          -1.27031046153956    9.58726157871972   -1.40136560118011
C          -0.40142651385356    9.49923764155960   -0.28388891229292
C           0.17882374356962    8.33861232769889    0.21236304752497
O           0.97768450004863    8.54889373041452    1.29275935288067
C           1.66079297051595    7.49514264414815    1.92443716311516
S          -0.09778271676066   11.04781940880986    0.44517231944407
C          -1.11966906860845   11.82396153012420   -0.74589765065614
C          -1.64888310169561   10.93645247423338   -1.63788700607704
C          -1.30438129228451   13.24428133107543   -0.71580518264103
C          -2.23530230116647   14.00620030515959   -1.38822925611760
C          -3.26723093502736   13.42189174068201   -2.29320774501535
O          -3.23491152458463   13.49380608390606   -3.48750969265102
O          -4.26241908938646   12.76294359815862   -1.66364191857181
C          -2.07866434223971   15.40537302882069   -1.16118303141892
C          -1.03856700047313   15.66186171722113   -0.30429696917861
S          -0.23235218517996   14.24778694678505    0.21585929658762
C          -2.91536196317430   16.44097853283701   -1.71873397492039
C          -2.60521794997479   17.75566304197665   -1.87141690662693
C          -3.65152957337514   18.53096068324557   -2.43124103513865
C          -4.80642857720167   17.76251045901397   -2.71698189065488
S          -4.54368395987784   16.09530477112893   -2.24952130218191
C          -5.93388508843681   18.33689525986314   -3.28661179983155
O          -7.10194879609270   17.74532199420533   -3.63837617376259
C          -7.23325979559759   16.34404281709412   -3.57655931659026
C          -5.87295963062991   19.72361505216675   -3.53217688759384
C          -4.72035623473820   20.49460059709392   -3.23068692146524
C          -3.58624679597484   19.91508525364899   -2.68666236583340
O          -2.40497854300176   20.49856141240499   -2.35093273707918
C          -2.19434404164950   21.86645344866296   -2.60646854156272
S          -5.00188328469683   22.17342669309194   -3.65304399384972
C          -6.62088580332961   21.81977203146298   -4.21905268727793
C          -6.92106178970522   20.49514898281553   -4.08913320399038
C          -7.43919515054105   22.86694253910742   -4.72925048614643
C          -8.72330484024159   22.76794389371525   -5.22892374829108
C          -9.21948996202691   24.00820388940020   -5.63797803137650
C          -8.30716875340692   25.05296316891387   -5.44690549908042
S          -6.83743063023485   24.51434607066219   -4.76610803510930
C          -8.90928759450691   26.26472706465179   -5.89195968277062
C         -10.19622720965705   25.97882743473034   -6.36160089958225
C         -10.43897537568094   24.55602411614518   -6.22154155877203
C         -11.56748081210791   23.86798827656979   -6.56265496849275
C         -12.69441729739375   24.50282810680336   -7.12437844317043
N         -13.61431234620313   25.01278826682877   -7.58200525649542
C         -11.68456188288326   22.47531086299942   -6.37646628237151
N         -11.78630493527850   21.34253309308543   -6.22776024985833
C         -10.86771649410757   27.12832092871998   -6.82325731755003
C         -10.09278108436073   28.23961431008586   -6.69697255631975
S          -8.52889155877192   27.92366620110314   -6.01564377207098
H          -0.08316964086487   -3.72067340521440   -2.58883953849558
H           1.46248160943025   -2.93852429754871   -0.62752573113291
H           1.34883686028733    3.17091182041144    0.44328192485302
H           0.92905006871533    5.46959120450994    0.53319560493384
H          -3.73491092144306    8.75788146943579   -4.50119454902694
H          -2.46394967120641    9.96232068457409   -4.20139153358140
H          -3.79003013667522    9.73456250981232   -3.01644304851746
H           2.21344508316225    7.96310877402239    2.73856286237042
H           2.36789375990344    7.00984764099366    1.24580879950508
H           0.96771837183634    6.75844546997281    2.34043193316717
H          -2.25866065722608   11.25684090503213   -2.45806900958400
H          -4.17693561350087   12.79569224021344   -0.70167809056967
H          -0.71755555792483   16.61806170719905    0.05573728385835
H          -1.65283731175762   18.18300248873301   -1.62051898616547
H          -8.21673156262793   16.13045353251193   -3.99304754153500
H          -7.19157598235511   15.97815168283494   -2.54699473661249
H          -6.47065478213916   15.83830278334567   -4.17414942517527
H          -1.17508251992618   22.06568591781475   -2.27790816685764
H          -2.88454705271182   22.49653894480697   -2.03913172301665
H          -2.28073465515244   22.09759045608316   -3.67135185577780
H          -7.86018457913721   20.05923966142058   -4.37282764016336
H          -9.25986975148379   21.83958159962902   -5.28882022592690
H         -11.86419679541626   27.13786957956425   -7.22547243806818
H         -10.33867490455456   29.24776229610687   -6.96383413452012
