93
 SCF done       -195.201191893174          0.000550194917
C          -2.74727578651369   -5.66573631870097   13.72079409976694
C          -2.40162291827784   -6.60169138728029   14.65457884862555
F          -2.21103860443110   -6.24138871645141   15.93172276684489
C          -2.24159185790928   -7.95309420068617   14.28982163144697
F          -1.90137720216887   -8.85029262983054   15.22677649604296
C          -2.42968913003415   -8.35024348574624   12.99569019204560
C          -2.78570490627395   -7.40955083276051   12.00990414740931
C          -2.94909665839180   -6.04276341514745   12.37779156911123
C          -3.30950736104592   -5.08133448537923   11.40595495426693
C          -3.50399215203154   -5.47629742182548   10.10868754070379
C          -3.33259703391096   -6.84166833864612    9.74845311655883
C          -2.98014146831592   -7.79093463544891   10.66323254380368
C          -3.56743478207737   -7.00433235664751    8.29777200253603
O          -3.37450128410563   -8.01184462715282    7.65210603222642
C          -3.92921766301701   -5.65277909629717    7.80269940105865
C          -3.89231009179926   -4.72890432062274    8.91635894432168
C          -4.25696742249563   -3.40751135197268    8.88450694281156
C          -4.75028604378236   -2.73255873068541    7.74759748655596
N          -5.19019454525695   -2.11936886703078    6.88228528937581
C          -4.22379334548545   -2.55318888859100   10.00562851545876
N          -4.20755384362990   -1.81123277986315   10.88173415192336
C          -4.07153594693724   -5.31768348629537    6.48652096431623
C          -4.33558008052134   -6.22002592198242    5.42204717132779
C          -3.87562434320240   -5.93484347526002    4.11673782309956
C          -4.10519939992507   -6.82569967928984    3.02169165924997
N          -3.60854212245691   -6.52893955403110    1.80707857430528
C          -2.92941292104807   -5.43681887728357    1.64473754037661
C          -2.70254002559188   -4.55525239161563    2.73166400013900
N          -3.15637802549979   -4.80826971351600    3.91619075533356
F          -2.00485542033842   -3.43667865730741    2.55865047063220
F          -2.45455650945230   -5.17609017813953    0.42911069969243
C          -4.83738067786605   -8.03409653246333    3.15908984116248
C          -5.36418056721813   -8.28283622773309    4.45084528463515
C          -5.12488158948907   -7.38434045190851    5.55607610582189
N          -5.78050713339858   -7.76638310238073    6.65054630703324
S          -6.55926131817220   -9.13249626111740    6.34889556135222
N          -6.14803771343923   -9.30042877499530    4.80804859610608
C          -5.03637260672493   -8.90135187440767    2.06282614379853
C          -5.72916251079948  -10.11229631338681    2.06871704230885
C          -5.75839824284684  -10.70278035497888    0.81843604885426
C          -5.07782580085897   -9.93821902174989   -0.16376656349084
S          -4.40367267885946   -8.50209984048526    0.47016287993113
C          -5.18095235722015  -10.61321137681989   -1.39443141338161
C          -5.92040183979611  -11.80180581856970   -1.20852119704830
C          -6.30146946999333  -11.89574876735019    0.19187589485989
C          -7.01746496135864  -12.89424111790124    0.78576157368344
C          -7.49282290309575  -14.01065418168947    0.06610234577175
N          -7.88639100305826  -14.92305554100780   -0.50640884433826
C          -7.33384516279315  -12.88103057254236    2.16082012060228
N          -7.59917275824597  -12.88465167070459    3.27634301073928
C          -6.08529300349766  -12.53118393965880   -2.37830114127115
C          -5.48199934588676  -11.92492564968459   -3.47114692639570
S          -4.69339377179130  -10.41036125499089   -3.01720569629145
C          -5.43987598476189  -12.35952747736369   -4.82993695984110
C          -4.77519986692147  -11.60202550537471   -5.79514267791323
C          -4.73279409210121  -11.96514236911701   -7.12305056837480
C          -5.37926430079405  -13.10360607735026   -7.61694053920939
C          -6.01064264636325  -13.94911659103061   -6.64773753208210
N          -6.49119706452320  -15.14293615604564   -7.02767413154496
C          -7.04298369131898  -15.91953239713349   -6.13093704363920
C          -7.16515163549706  -15.51456496219347   -4.79394757456413
N          -6.66508072272496  -14.37872314105398   -4.38443996153857
C          -6.05252525099053  -13.57580556722754   -5.27103462617972
C          -5.28160118800597  -13.36852605586657   -9.01019628529825
C          -6.06705160696475  -14.11460191371673   -9.84845040921548
C          -7.33347405754824  -14.73247512276874   -9.67644671324596
C          -7.82484098043143  -15.32522796812593  -10.79526770847053
C          -6.98359520188231  -15.21796150444404  -11.93193563339809
S          -5.54669878538815  -14.31004944409864  -11.52044563906564
C          -7.20220971189241  -15.71574144991416  -13.19598312908216
C          -8.32294650118304  -16.47346720988028  -13.64255650494815
C          -8.26976296077289  -16.82941801135396  -14.94439814660551
C          -7.09425435237871  -16.37856611868749  -15.63413360045545
S          -6.06994042136108  -15.47440968620950  -14.50647822590739
C          -6.76900791109973  -16.57766493551312  -16.91839642275276
H          -2.86706463060310   -4.63522564572417   14.01676129894207
H          -2.30260714425684   -9.38869379194137   12.73260162308266
H          -3.41836671028440   -4.05387370704255   11.71349511944620
H          -2.85437470523462   -8.82048257860122   10.36427300651740
H          -3.93896706109919   -4.28694734196113    6.18300638531112
H          -6.17808542400750  -10.50037678816781    2.96484570536177
H          -6.61209625837256  -13.46246579244674   -2.47192553147420
H          -4.27912847322966  -10.69197765508904   -5.48916834987271
H          -4.20578857681047  -11.32958149812370   -7.81961330273749
H          -7.39554142586226  -16.88225878206137   -6.47531545478969
H          -7.65816177881897  -16.12148542891401   -4.04722519269926
H          -4.45472223821854  -12.86040332855498   -9.49412990547137
H          -7.84612793133581  -14.70327971879119   -8.73469551667900
H          -8.77355156957918  -15.82962359878494  -10.84055360822934
H          -9.12861807973649  -16.72659347259453  -12.97677610284990
H          -9.02185586431893  -17.40073285965035  -15.45876664344371
H          -7.41957357043014  -17.13375044832385  -17.57015833401896
H          -5.85765331067769  -16.19195043075137  -17.33727646889433
