82
 SCF done       -164.990034716920          0.001904498376
C          -3.41410241482523   12.96781171957858    6.48947504946735
C          -3.95458689074119   11.76026548142879    6.80945645520100
C          -3.55263720599772   10.76203051365744    5.90059437146662
C          -2.70579227422110   11.25573064068634    4.90455009007875
S          -2.40578622331885   12.92561466994048    5.07996607688789
C          -2.34836909904286   10.17917938898382    4.03586315503749
C          -2.97818840745428    9.01869823415204    4.49088861923032
C          -3.75973952725964    9.34124137309045    5.67533529960777
C          -4.52537018750249    8.48373764970662    6.40971197399721
C          -4.67456694013936    7.12176428510745    6.07080155445182
N          -4.82393129220473    6.01691827535429    5.80141279093953
C          -5.23639113839195    8.90168249500120    7.55370737948008
N          -5.81671298032290    9.23438749022668    8.48542584888210
C          -2.67962868395710    7.89290817639979    3.71224948188823
C          -1.82814206744634    8.19633012545650    2.67952980305348
S          -1.39415556073395    9.89457004354105    2.64924898097499
C          -1.29865964581805    7.30561756011917    1.68477190034155
C          -0.82574178692730    7.62399822445092    0.43842066719913
O          -0.43761875011190    6.52339800920708   -0.22229870300664
C          -0.66232243674601    5.47607133470692    0.58067987377902
C          -1.19363192443689    5.87496666733612    1.77496173138137
C          -1.44697901341327    5.03735083145146    2.97043509528878
O          -1.04188565032978    5.36104037918449    4.07116978286912
C          -2.18591946981247    3.80775868456471    2.74048127348550
C          -2.82703490211721    3.35897292589545    1.60294852371198
C          -3.43661105269152    2.11774136673880    1.78223797636153
C          -3.26875320699023    1.62751072620399    3.05831021648185
S          -2.36687115770064    2.69544449072446    4.05842292447880
C          -3.73228170180064    0.36856294060993    3.59745561013135
N          -4.31466441676367   -0.49174945815588    2.76106691313482
C          -4.68695385757065   -1.65056599027705    3.27959401465303
C          -4.49462426247496   -1.96963870513022    4.61205295548511
C          -3.89818946238888   -0.99040593913946    5.41999219812673
N          -3.52176553413454    0.17300462720974    4.89121899257218
C          -3.67710082064489   -1.20802359353614    6.83537417031383
C          -3.21546215774971   -0.23063199114174    7.62803450613898
C          -2.96373485281996   -0.29744405694091    9.04264664092644
C          -2.60701086072762    0.79710262531168    9.79287518960355
O          -2.44014778239217    0.47649982885601   11.08243824865732
C          -2.70094367020247   -0.82803860826327   11.19993430787611
C          -3.03643501007658   -1.38217698667170    9.99058109812209
C          -3.28306543338225   -2.82059718900554    9.78486116508984
O          -2.95336203533909   -3.42862904805117    8.78399383549840
C          -3.92398293413793   -3.50150660971909   10.90773108391975
C          -4.73634976660183   -3.00800643746884   11.90347888705239
C          -5.19731730989836   -3.99546023258280   12.77363562450774
C          -4.73899953367282   -5.25755154416777   12.45090248254412
S          -3.74869245498376   -5.22371807611446   11.02797386877835
C          -4.99353489806760   -6.47132047940034   13.14882152136721
C          -4.53085357224219   -7.73709782521124   12.85313507101795
C          -4.97790030304261   -8.68647347885858   13.77691627337384
C          -5.78602211977338   -8.13356274340729   14.77798820526212
S          -5.99959464483395   -6.45242490428520   14.59047398416471
C          -6.18466149789527   -9.17464476216253   15.66631369661290
C          -5.62457557720461  -10.37736751356609   15.22296566032862
C          -4.84991862325067  -10.11831224183070   14.02172899196760
C          -4.15509075499914  -11.02276073948666   13.27484766269977
C          -4.10179719317073  -12.39257015153445   13.60984805929925
N          -4.05424013133841  -13.50606882487713   13.87873316176773
C          -3.44223093055397  -10.65374710797161   12.11443933328887
N          -2.86260433166100  -10.36691075802386   11.16796439564135
C          -5.96759833880057  -11.46583143539269   16.04770632731436
C          -6.76574892548675  -11.07295895932556   17.07914339585831
S          -7.12211091956600   -9.37726057576835   17.07801588948321
H          -3.54236420290741   13.90193486390800    6.99854276236538
H          -4.60318540795136   11.60039264645040    7.65122215520152
H          -3.06487193736323    6.90751205824008    3.89219997319064
H          -0.72867895564781    8.56853968378589   -0.05944749167301
H          -0.37425276451952    4.50652725494407    0.22481960899219
H          -2.86051352664320    3.91658557349212    0.68426807080738
H          -3.98327219731709    1.58221973788230    1.02802477298177
H          -5.15371924411526   -2.34269992564136    2.58958623962503
H          -4.79156630083113   -2.92238403485283    5.01832062694295
H          -3.89636533291708   -2.19664978417174    7.20754271177447
H          -3.01482465878865    0.73354197089932    7.17707574287057
H          -2.45119577217907    1.81935140876127    9.50857567176686
H          -2.57535125989332   -1.27112665271166   12.16863423109263
H          -5.00901338131676   -1.97120000484933   11.98187003377800
H          -5.84151317306364   -3.80607735017360   13.61431389817877
H          -3.89970259032631   -7.94081049237347   12.00682055431984
H          -5.64568937141207  -12.47972092932322   15.89421742612333
H          -7.17828341108420  -11.68087083741101   17.85910139540859
