106
 SCF done       -183.847171075126          0.000953426542
C           0.40849799319827   -2.16708318306994    2.53106447964397
C          -0.28221949384360   -1.58070230219492    3.54722074656565
C          -0.49407930541739   -0.21072742694404    3.29852802325114
C           0.05340170293934    0.20147913248871    2.07903475929381
S           0.81925011145495   -1.07698928881277    1.24750148471034
C          -0.19587300326661    1.59592847596686    1.91598796694725
C          -0.90220772877591    2.05153496465172    3.03604744443223
C          -1.11871880379116    0.93145938492670    3.94059274535511
C          -1.77732947106959    0.95432967987086    5.13685066990284
C          -2.35321833780855    2.13293776846969    5.65303182476723
N          -2.82674416239473    3.09017970231356    6.07215843864367
C          -1.92937014906551   -0.19802946521918    5.93454512647315
N          -2.06590625134530   -1.13131088669959    6.58730367917555
C          -1.18662210259269    3.41832080613137    2.97464789436977
C          -0.71555609591644    3.99434560092035    1.81229771736222
S           0.10677418026393    2.83201376607095    0.78033800801483
C          -0.77524668323922    5.38516812378364    1.48152167967063
C          -0.54039768456943    6.03429271368170    0.28871242896077
C          -0.20788756289886    5.34702925099777   -0.99071966610710
O           0.79335877944939    5.56245880025288   -1.61465250978324
O          -1.06483887945024    4.36915882215524   -1.36125979987117
C          -0.55975827112407    7.45493412556622    0.41736132289058
C          -0.83906397632661    7.84808325794662    1.69580015097438
S          -1.06382883996981    6.53170128480371    2.76758924202794
C          -0.33727957476337    8.37220408436936   -0.68990799786408
C           0.38856551980847    9.54209699533618   -0.54168124491873
C           0.63089454026550   10.38825295465651   -1.61078294517150
C           0.15658588735237   10.12901619690107   -2.90061311244678
C          -0.61978188246640    8.94304031614498   -3.06970680359975
N          -1.11539060387218    8.63530338191303   -4.26949609456992
C          -1.81784486998678    7.53958024134829   -4.41590049746516
C          -2.07537001064260    6.69882021806797   -3.32583496332283
N          -1.61710126356716    6.96745404084419   -2.12996622571643
C          -0.86509182273036    8.07343706621208   -1.96747309405808
C           0.48609048812526   11.02964833082638   -3.94679131998737
C           0.14711320947232   11.08481081224559   -5.27438017992439
C           0.63421121633670   12.12414554561819   -6.12260261152376
C           0.18980549952729   12.07764173045270   -7.40366999786696
C          -0.68994317063291   10.99723114817380   -7.64235670616645
S          -0.89818228596837   10.02277998569382   -6.18831709630652
C          -1.34066102148907   10.68527025121842   -8.81464769902324
C          -1.27892037708507   11.36418124486874  -10.05848026170972
C          -2.05724098505313   10.82889158925293  -11.03194041430256
C          -2.80333414832686    9.68460201798643  -10.62428993598883
S          -2.44592977838265    9.33489074628339   -8.92694254424599
C          -3.72883642633314    8.94728658584065  -11.29438414894214
C          -4.09282159753807    9.04994026548017  -12.68403771956137
C          -3.19150276809262    9.41541133751559  -13.69184250287885
C          -3.59302932590212    9.49267538478760  -15.00650454458963
C          -4.91244300874030    9.21977591800181  -15.37196346480781
C          -5.81395674353096    8.84890874110498  -14.37196076495803
C          -5.40676832789508    8.73994101749484  -13.06249547622677
C          -5.36133674801305    9.35310696321034  -16.76372290792695
C          -6.64197423940765   10.05784072791149  -16.94284537030277
C          -7.62203175605756    9.56182640438395  -17.80048045158729
C          -8.82689603139878   10.22241188899996  -17.94413051123044
C          -9.07457832423520   11.38582994471945  -17.23391902655646
C          -8.11263272026483   11.87964415237214  -16.36868172893810
C          -6.90846261595108   11.21818294137372  -16.21830046364638
C          -4.64937091201045    8.86540562694602  -17.80615385015990
C          -4.97947526132513    9.18184823216778  -19.20481317460689
C          -5.25679693900123   10.49011731948124  -19.59756320639756
C          -5.53754884787729   10.78038646863322  -20.91870768437471
C          -5.54678903486913    9.77174307756335  -21.86839473358973
C          -5.26222578094615    8.47010352767359  -21.49032249075921
C          -4.97305890845269    8.17733154124771  -20.17097295583790
C          -3.49403429349889    7.97317631679640  -17.61933616451397
C          -3.55346485598060    6.90063358756358  -16.73103150779923
C          -2.47247965707023    6.05345101211502  -16.58161193171386
C          -1.31618360926709    6.26132716001519  -17.31577435791641
C          -1.25132352188482    7.31673423354382  -18.21035784789773
C          -2.33333707990420    8.16210161071263  -18.36745053241877
H           0.71203832613651   -3.19142523918278    2.44808854930030
H          -0.61666865347313   -2.10561031072955    4.42330148775753
H          -1.71121999234617    3.97680085945111    3.72899451729951
H          -1.87978436180251    4.39655811016790   -0.84343058565164
H          -0.95262283690701    8.84899357478590    2.06187116683025
H           0.80241420577749    9.78312977863862    0.42649766291976
H           1.22139008801929   11.27821814216010   -1.44662040884327
H          -2.18827129465607    7.33415615231140   -5.41002661174757
H          -2.66312607493516    5.79701134675508   -3.42994563865599
H           1.13533952726705   11.83979728586137   -3.62938233995928
H           1.30324833958020   12.87715028826464   -5.74246247081142
H           0.46269164702236   12.78699430942908   -8.16543299564324
H          -0.66434744340022   12.23723120286754  -10.18994883550188
H          -2.16142617416829   11.24775053133744  -12.01611927383258
H          -4.28825972148951    8.22273110716122  -10.71638450845925
H          -2.15706148381356    9.59487827956334  -13.44251452152551
H          -2.88174013813360    9.77730213609544  -15.76800543431152
H          -6.83742523730829    8.62691687487517  -14.63964994399133
H          -6.11436780993644    8.43907196603117  -12.30315823932083
H          -7.43813376884394    8.64803104665462  -18.34611499612755
H          -9.57850922699109    9.82614250969824  -18.61119880868580
H         -10.01585307266284   11.90236827116958  -17.35024227353313
H          -8.30224223650517   12.78329258993251  -15.80762986598122
H          -6.15744006719746   11.60662634737569  -15.54453526441765
H          -5.23839744938938   11.28092547899747  -18.86198824001485
H          -5.74698087833437   11.79925984009562  -21.21038183400934
H          -5.76944756408334   10.00042671871959  -22.90014152883625
H          -5.26335320881366    7.68024513677475  -22.22744451931431
H          -4.75244295745234    7.16078500063523  -19.87669395477864
H          -4.45879749234171    6.72645627912414  -16.16809052065301
H          -2.53331119413513    5.22409536742082  -15.89210308284546
H          -0.47137506445641    5.59939445561967  -17.19573105846458
H          -0.35430549900439    7.47999174672615  -18.78992832064344
H          -2.28129242627268    8.98622882122945  -19.06510989868383
