91
 SCF done       -180.612211003576          0.000612997698
C          -6.69626551743410    0.87901994941507    8.02117143206378
C          -7.68570802619325    0.80500901583025    8.96126973316423
F          -7.79394439593295    1.75387394307171    9.90220618377384
C          -8.60167582499469   -0.26486696316632    8.95486610411312
F          -9.56261926910327   -0.31383726061454    9.88959125781694
C          -8.51642804977583   -1.24622285604437    8.00735915726468
C          -7.50859271728310   -1.19757128209285    7.02529835679646
C          -6.58075606120042   -0.11696386347921    7.03113243342421
C          -5.55837058899081   -0.04784182289385    6.05575274192693
C          -5.46754339325379   -1.02844368447590    5.10453174453713
C          -6.40036411636766   -2.10249654926953    5.10650597990789
C          -7.39665030250685   -2.19769849719060    6.03327300406283
C          -6.08527099974849   -3.01368296212407    3.98906360792547
O          -6.69473634894153   -4.03112358495740    3.70096889079936
C          -4.91342591252136   -2.44959103911058    3.32211130917723
C          -4.53702004827728   -1.22604417032055    3.99208122833159
C          -3.51081637339919   -0.37306407209283    3.66745010825893
C          -3.21581847761290    0.80912921234209    4.37662161387977
N          -2.91971349111377    1.78289571084529    4.90886297245735
C          -2.60871585745204   -0.52777708244139    2.59473894939979
N          -1.83345688778304   -0.56329939067125    1.74722623109018
C          -4.26558509576536   -3.00964651388254    2.24127158365858
C          -4.55598203079385   -4.16656310109049    1.52457667103358
C          -3.74074943818751   -4.57331438209707    0.43158998926446
O          -2.67378040901327   -3.82807836609890    0.11497171281917
C          -1.88413495931471   -4.23288439628564   -0.98300948110481
C          -4.18382179691081   -5.73270183381138   -0.18179904694745
C          -5.33689349108731   -6.23907739128208    0.41342864591340
S          -5.87903476425228   -5.28294234877402    1.75620629559469
C          -6.03767997787091   -7.38903792898459    0.01678739789071
C          -7.21480177919358   -7.88042934262334    0.60808548249675
O          -7.71681176643744   -7.21252018631624    1.65796408728581
C          -8.89462208193461   -7.69921093415690    2.26087226640032
C          -7.69896424614023   -9.02539503987166   -0.01254786711958
C          -6.91604752819964   -9.45206471415826   -1.08582865696843
S          -5.54886516558634   -8.39297560380625   -1.31390493146120
C          -7.17884395298398  -10.56604004112920   -1.88909725861644
C          -6.43148777865407  -11.04735469648894   -2.93915223789446
C          -6.75816558469598  -12.17439140834134   -3.73153063395642
C          -5.84843212863214  -12.45691071409197   -4.70602308840026
C          -4.75076831757140  -11.57008567581395   -4.73069512964692
S          -4.91817096412127  -10.35534868635416   -3.48489433355911
C          -3.65294714360406  -11.60213853408389   -5.57592331706701
C          -3.39388250829639  -12.51411052961559   -6.62065074136884
C          -2.20850360252621  -12.30018146239889   -7.26187948048507
C          -1.46908922010608  -11.20747920773046   -6.75231228182546
S          -2.34276786017324  -10.45380686692335   -5.43951541969938
C          -0.22991243065540  -10.72596760787755   -7.13710790851470
C           0.52539266700208  -11.29166255435228   -8.15972052919217
C           1.77918577397623  -10.86032545587481   -8.54741235037066
C           2.58984997085630  -11.42762538229532   -9.59420065207226
C           2.27027049163496  -12.48566794056302  -10.41574996117927
C           3.11557232391923  -12.98790152043986  -11.42438853308229
N           3.75323274878079  -13.44496264721446  -12.26361002232051
C           1.06925121338230  -13.21945460501661  -10.37822838164659
N           0.12053108841854  -13.86843874455952  -10.40963699756573
C           3.84320116503460  -10.67696911544036   -9.64326534034550
C           3.80487769518255   -9.66647665610289   -8.65214504771020
C           2.51525383656081   -9.73815339597167   -7.93265262115458
O           2.15994735869301   -9.01230648744160   -7.02461217272591
C           4.84249659815460   -8.79266863349652   -8.44306434971522
C           5.97703870494820   -8.92095005440605   -9.25232188489130
C           6.00641829107559   -9.93199238047897  -10.24038811228396
C           4.95486050263667  -10.81653356824157  -10.45165141075564
S           7.50117315873001   -9.91570460264896  -11.12726274127909
C           8.05785621816539   -8.56878363253380  -10.17021334077867
C           7.17254291713628   -8.15126527315406   -9.23485231255706
Br          9.75663919699942   -7.84202505458844  -10.49525589671236
H          -6.00275738609347    1.70517389060902    8.04028541643625
H          -9.22572191801178   -2.05899579127995    8.01608899243511
H          -4.87244857796231    0.78266009943631    6.09063372353335
H          -8.09028347769459   -3.02445693124290    6.01102470676501
H          -3.38843067254240   -2.49495195032712    1.86776922930155
H          -2.46917868319437   -4.24732094578707   -1.90684853264504
H          -1.44671637489151   -5.22074238609129   -0.81322878755106
H          -1.09298587908937   -3.49010759823204   -1.06210177992179
H          -3.71773424502760   -6.21207519302796   -1.02398588796582
H          -9.10518642904819   -7.01244447836466    3.07785040417675
H          -8.74930734531514   -8.70881013231587    2.65667888541675
H          -9.73074658407520   -7.69952166116734    1.55520807224424
H          -8.58682835787870   -9.55366472253926    0.28351017093438
H          -8.08246950590973  -11.11347040002017   -1.65176875390246
H          -7.65564940812549  -12.74050181145548   -3.55545515685852
H          -5.93631781155737  -13.27623807663367   -5.39590662783144
H          -4.08042538850522  -13.30139505983128   -6.87457794615771
H          -1.85604682891470  -12.90236714263725   -8.07985268323368
H           0.17361108326803   -9.87505518865338   -6.60822511286271
H           0.10295868650272  -12.13559996907257   -8.68434652751016
H           4.78254652580765   -8.03404904267578   -7.67848090820498
H           5.02813120068509  -11.56987255007087  -11.21783993197732
H           7.35297413873434   -7.33513049022839   -8.55931366410272
