90
 SCF done       -176.516031081723          0.000233347260
C          -0.44474547259193    3.63055070435055   -9.54606505342157
C          -0.02453090373518    2.71205362250734   -8.63440823663352
C          -0.22496668340341    3.16635644100502   -7.31615692574314
C          -0.80430850204242    4.44408698331945   -7.27296241136000
S          -1.09626491293578    5.07296454533887   -8.83355714174126
C          -0.96968271371683    4.82571170889839   -5.91549883932133
C          -0.49075618832756    3.78380009212268   -5.10373695805191
C          -0.00950086422445    2.70540748898416   -5.96187470528489
C           0.52473995065064    1.51768411611055   -5.55084421994796
C           0.67636641050477    1.19365547055607   -4.18675872820321
N           0.80405399187340    0.91808433512914   -3.08041800375625
C           0.96012595883673    0.53486440514429   -6.46337292807377
N           1.31594896606973   -0.26701398808473   -7.20228102773738
C          -0.59943657324363    4.04991304968634   -3.74565961689945
C          -1.16433396416991    5.29707518354417   -3.50830896909476
S          -1.56173223623517    6.14286725040663   -4.99849914472705
C          -1.40585721775534    5.85221123007018   -2.23866907412174
C          -1.10596148916307    5.26109661098522   -1.00127261347020
C          -1.47190918701046    6.07152529805323    0.11153573933932
N          -1.25364871536098    5.65355616168141    1.37093946384946
C          -0.69721999877766    4.47986211804301    1.53282225221432
C          -0.33076401467542    3.66201155589050    0.41184601944712
N          -0.53523179167299    4.05671153099411   -0.81893556478624
C           0.29850517748309    2.32438765921175    0.59715186283614
C          -0.46204833545078    4.03012497736979    2.93354185764369
C          -2.06096386641577    7.29033413872677   -0.26250396607118
S          -2.14023923297361    7.40497022645311   -1.99297130408625
C          -2.54137232212245    8.28509525830059    0.60472413765507
C          -2.49147857000384    8.23673907577459    1.99320329109699
C          -3.06579435446969    9.35888109871033    2.57113895616073
C          -3.56292084496202   10.28263475490099    1.62457313359877
S          -3.31078347466788    9.75649859173681    0.01535720788002
C          -4.13732142038083   11.36824148577582    2.31441702863255
C          -4.00772149771316   11.13993809490126    3.70277632001869
C          -3.32641823075299    9.87279365236406    3.90479362995739
C          -3.00410878764307    9.28706162288172    5.09489273832010
C          -3.31556946229203    9.88574588749009    6.33362639400429
N          -3.56671274315315   10.36515164502596    7.34500104943028
C          -2.34024408524914    8.04429141059174    5.16334042981624
N          -1.80141129770118    7.03374057485934    5.22839898773209
C          -4.55963146369518   12.14836008404071    4.47837047433660
C          -5.11746541230903   13.15566477374695    3.69936517931996
S          -4.94248727892774   12.84006100331973    1.97479891259974
C          -5.76869976626434   14.29887820144611    4.19066562585638
C          -5.98757826465311   14.61858436237469    5.54057991943613
C          -6.70065092392662   15.83874873449992    5.71904931640286
N          -7.00153291850138   16.28759034861679    6.95092802665492
C          -6.61485499211991   15.56526670867900    7.97131295937769
C          -5.89220440965236   14.33841271030989    7.79134313810228
N          -5.59380432395751   13.88836794234763    6.59895109552092
C          -5.44788402297580   13.51978708546953    8.95410756535510
C          -6.95891834441123   16.07382761389984    9.32868402412455
C          -7.03060297451576   16.46884902207728    4.50885537318495
S          -6.44848301164591   15.52893136388881    3.17151812129220
C          -7.73234909008152   17.67910013963386    4.36279498290062
C          -8.23157833034409   18.44960620025233    5.40584228476395
C          -8.87994949864063   19.58607209076050    4.94202567506762
C          -8.87994446642815   19.69465776381519    3.54126216534015
S          -8.07688391828941   18.38495160374575    2.78895989616105
C          -9.56492244047885   20.88681625143581    3.18736391557963
C          -9.99619366405527   21.52576744887019    4.36031725459816
C          -9.58529460234978   20.73567165448853    5.50045114266361
C          -9.80325275330460   20.98981991613149    6.82443903529634
C         -10.50342071387242   22.13211491454852    7.26386884466073
N         -11.07328130079796   23.05927947399814    7.62602795369993
C          -9.34411200525816   20.12704303964202    7.84108444287961
N          -8.97632331585394   19.43302699642061    8.67733049334065
C         -10.68797215151856   22.72400053340734    4.09565723028662
C         -10.76731448562116   22.96745513151449    2.75932800776910
S         -10.00624957091097   21.75132076616926    1.78237347087805
H          -0.41594365744478    3.55818356059831  -10.61473931790074
H           0.40514865410575    1.76268272296638   -8.89726773588797
H          -0.30091848233327    3.40946640763947   -2.93627598530340
H           1.23705495212164    2.41925675259804    1.14117129202182
H           0.48861570607112    1.87504446952039   -0.37390664184520
H          -0.35771800468112    1.67406840533582    1.17355601656438
H          -0.80040774183195    4.79855483338370    3.62345783611162
H           0.59719048690321    3.83818269588696    3.09732964457883
H          -1.00335631241469    3.10573973421723    3.12972142203226
H          -2.05216844367530    7.40087543913393    2.50609084722346
H          -4.58621426912926   12.19483575750826    5.55161619843663
H          -4.79078920724484   14.10221792106607    9.59821233045574
H          -4.91734642696577   12.64075829302470    8.59797917558238
H          -6.30614253712408   13.20748600630114    9.54726379196925
H          -7.51492942953306   17.00314489596795    9.23794785123097
H          -6.05345557861279   16.25048124603441    9.90741124988279
H          -7.56150376051356   15.34292430333896    9.86571568463632
H          -8.10243999044393   18.15263764774172    6.43030421591025
H         -11.10383173273820   23.37075966724941    4.84651024677958
H         -11.23212430945863   23.79854929121655    2.26804028307492
