108
 SCF done       -218.851960601901          0.000681441177
C          -8.69349815666043    1.03466398324877   -3.89639085365981
C          -9.87283867782741    0.99660592576558   -4.58576709054146
F         -10.24991430107951    2.04202878538758   -5.33356535327256
C         -10.70663978857449   -0.13779207498627   -4.51911657950129
F         -11.85845851296771   -0.14624616255762   -5.20364413107034
C         -10.34875043936108   -1.21931638762019   -3.76400373569541
C          -9.14056375248117   -1.20984670572435   -3.04045616020809
C          -8.29662262520922   -0.06331796272166   -3.10646329032626
C          -7.08249604129263   -0.02876048439897   -2.38379940758948
C          -6.72217752636973   -1.10816678619418   -1.61953808358171
C          -7.56874926446902   -2.25105846624346   -1.56441873138564
C          -8.74907206810423   -2.31096429702250   -2.24697979959853
C          -6.96585392342131   -3.26513933186438   -0.67988880479873
O          -7.47307625242951   -4.29902019171188   -0.30312890781874
C          -5.65986526854121   -2.69553406146483   -0.25569654535677
C          -5.55883726396017   -1.34243920597800   -0.76966624820860
C          -4.56795912462376   -0.43304843007715   -0.50457331547932
C          -3.49397533664343   -0.65013270536269    0.38224407914057
N          -2.61584375134254   -0.75945615534180    1.11519533515926
C          -4.51405363175499    0.86506806537893   -1.05444528453013
N          -4.41268048908241    1.93148825044204   -1.46717086900734
C          -4.78371433882641   -3.34293890798306    0.55601483566185
C          -4.86965945160184   -4.75963606328127    0.81997184881100
C          -4.72974521301077   -5.41248196075817    2.04125062033556
O          -4.54811009290139   -4.81332421673530    3.23946708645552
C          -4.50447752458466   -3.41566597559948    3.40771434295528
C          -4.83607293262224   -6.84494310783377    2.15919425269438
O          -4.76849030344897   -7.45524375345244    3.37047463070364
C          -5.45199808840737   -6.93052609016044    4.49660925800057
C          -4.93412668191876   -7.69024897163915    1.05129269916548
C          -5.01060397915745   -7.03439199933164   -0.20926458528517
C          -5.03514785895160   -5.60338577604673   -0.31057252310599
N          -5.11680763503425   -5.29720550458822   -1.58857795225182
O          -5.15827591984651   -6.45113521166415   -2.24924214441104
N          -5.09299916465328   -7.51068963250527   -1.43521410545247
C          -4.98282830779658   -9.11893457090182    1.10914975338100
N          -5.03199455413998   -9.85294619008429   -0.05603504933201
C          -5.07221707735464  -11.16936912228380    0.26222401487504
C          -5.10121189641886  -12.45531856024120   -0.26106341572687
C          -5.12320321669980  -13.32650599057845    0.84071969295166
N          -5.10698491837247  -12.58752487630522    2.00712874619705
C          -5.05829149674810  -11.27013486153008    1.68227928808082
C          -4.99275478212235   -9.98912803485632    2.21123841375869
C          -5.15119948677405  -14.73965543407069    0.80550586962590
C          -5.33997451316460  -15.53940473215098    1.88888793245111
C          -5.32074702731591  -16.96149553236753    1.86549366118353
C          -5.65441241508501  -17.70644744173761    3.00928007275297
O          -6.03115783725538  -16.95288892152261    4.07437543069812
C          -5.83271717058014  -17.38660548788609    5.40697946826998
C          -5.64910400716023  -19.13386168399772    3.02008010116546
O          -6.07607748105772  -19.71516384426662    4.16951958276645
C          -5.41691815211985  -20.85861102964399    4.69196897531458
C          -5.23111757982431  -19.88731274760890    1.91629086747692
C          -4.80353270029202  -19.14729342706942    0.78391771989120
C          -4.89942516796705  -17.71232364281970    0.73562842219110
N          -4.50534201180627  -17.33729904016393   -0.46260842186904
O          -4.18860559809031  -18.45082044809072   -1.12376105053827
N          -4.36410081116891  -19.55382598284373   -0.38965825716068
C          -5.35999584067037  -21.30905111372735    1.83794613836986
C          -4.62568518831327  -22.18125766094114    1.09591445325842
C          -5.16876481492638  -23.53159459962553    0.79408927817475
O          -6.13545405294191  -24.05420203356057    1.30158286095844
C          -4.29793640941470  -24.06973997363242   -0.27155957000006
C          -4.42050109719951  -25.23098110325597   -0.97792254077934
C          -3.46523143657274  -25.53256949593252   -1.97515034314229
C          -2.40225999539744  -24.61684366150598   -2.22592017128572
C          -1.45601693217744  -24.92265553266978   -3.22460255103665
C          -1.55711573428826  -26.08434560492428   -3.93725294451080
C          -2.60737056460100  -26.98967059668554   -3.68726834739141
C          -3.54261265888917  -26.72053843948149   -2.72758537948198
F          -2.68205892465248  -28.12206727956527   -4.40122322565720
F          -0.65392074084498  -26.37519001621898   -4.88374425646876
C          -2.29791716362841  -23.42388653723651   -1.47449280419814
C          -3.22852801797258  -23.15829895806933   -0.50630290779974
C          -3.34868477752371  -22.04936749062670    0.43323125795959
C          -2.34004544221246  -21.18897604700413    0.78333959255765
C          -2.42571357036600  -20.32836806455204    1.89238545796468
N          -2.46014007013879  -19.65973499986577    2.82640009019332
C          -1.08377947526862  -21.14071807335784    0.14782721917179
N          -0.04738570322740  -21.05515823503512   -0.33807137374022
H          -8.06724883907491    1.91093819155444   -3.95831502462877
H         -10.99758049263744   -2.08017182670365   -3.72344066520682
H          -6.46786198325838    0.85414752133506   -2.45273234912148
H          -9.37404991574122   -3.18869505806648   -2.18406479569485
H          -3.93539103091641   -2.80595808734251    0.95090834807392
H          -4.65078587472075   -3.25269306557223    4.47616731868806
H          -5.30293648035200   -2.91674006921204    2.85226177795170
H          -3.53475633798699   -3.00411884943993    3.11882467693102
H          -6.36219296966932   -6.40308518112820    4.20830566063904
H          -4.81107513653594   -6.26702373257912    5.07959624502549
H          -5.71797458118670   -7.79744086741692    5.10379986584015
H          -5.04740183171045   -9.42601534045559   -0.97149399689706
H          -5.11510349865773  -12.75931940291776   -1.28792006244962
H          -5.07567762327111  -12.97970371976949    2.93140869530195
H          -4.94547636239798   -9.69893634423762    3.23815202972074
H          -5.01875362741799  -15.19558375554866   -0.16441139168294
H          -5.54621065625942  -15.10906741822786    2.85806266106192
H          -5.87177025462162  -16.47568648787914    6.00585108424038
H          -4.85700634868070  -17.85969257330798    5.53409409563796
H          -6.62123122025694  -18.06703250209173    5.73240881466894
H          -5.23613924944360  -20.65617632691244    5.75076853506964
H          -4.46440025520774  -21.03741646570274    4.19231388400613
H          -6.05343942781895  -21.74084278270697    4.60746447643874
H          -6.21902229473678  -21.74385293904674    2.33752590824735
H          -5.23385211134842  -25.91234492625548   -0.77940988006131
H          -0.64438692849084  -24.24128456950713   -3.42651597267894
H          -4.34077643906425  -27.42394494657470   -2.54892250173584
H          -1.48953602604366  -22.74301978325996   -1.68807367609469
