100
 SCF done       -247.345245759422          0.000714280419
C          -7.60941618426105   -0.98651523248938   -0.63194039582312
C          -7.91779824129588    0.16183818396342    0.03398525729331
C          -7.05339591530905    1.21093501035276   -0.33134361821959
C          -6.10248512189785    0.81183970269767   -1.27942797657845
S          -6.27048760075006   -0.82902716916791   -1.71720555307493
C          -5.26445247791103    1.91703182451739   -1.58980523518952
C          -5.69176911560168    3.01900437116217   -0.81887851147692
C          -6.84000847824551    2.61168536644623   -0.01466804530428
C          -7.59059321422923    3.37248121974714    0.83359347006234
C          -7.31485926535925    4.72872474314900    1.07950935449680
N          -7.10830319716136    5.84221325161342    1.26931950053994
C          -8.71096185821776    2.82132615627448    1.49525205118326
N          -9.62750536093818    2.34719863177573    1.99392842943263
C          -4.92131538019029    4.14478636766674   -1.05598531270660
C          -3.91784847081311    3.92217527118948   -2.00548057924071
S          -3.95352775167598    2.26429859942048   -2.61148370642721
C          -2.98609940175304    4.90344612593360   -2.40993883082913
C          -1.95951263028738    4.89045313537255   -3.36747953542873
C          -1.62984189682407    3.74873811889516   -4.18477717332126
O          -2.20431268345656    2.66739993710847   -4.13679070631175
C          -0.50404938334876    3.96141017859688   -5.10899954157410
C           0.19903566437659    5.19091452431199   -5.19094751354096
C           1.21740899950352    5.13548522629742   -6.11274337359039
S           1.33471937253287    3.60576845998033   -6.88786394378068
C           0.00577973696690    3.01906978005636   -5.97249727288267
C          -0.45562750750187    1.60925376600453   -6.17368357270700
F          -1.72027184611780    1.52967290042969   -6.59620739504538
F           0.29179714627402    0.99687681053172   -7.11158723499199
F          -0.34710031185261    0.86473825017449   -5.06916903662634
C           2.18827397678226    6.21415157234329   -6.47920231155102
F           1.59918483841127    7.29311036626445   -7.00008929213178
F           2.93381206876002    6.61446018214596   -5.44520784993342
F           3.05295058580289    5.77236015910671   -7.41331666323211
C          -0.14670427101448    6.36480304433291   -4.36245365326815
O           0.46926560989030    7.41398298614021   -4.46577081804847
C          -1.25388994141091    6.12594956013404   -3.45282941012075
C          -1.71854328761723    7.09033117384578   -2.54700361115596
S          -3.04971071542695    6.45798858739410   -1.60828510349272
C          -1.18396310838209    8.36900735346816   -2.36837888652846
C          -1.48324886388546    9.28935944886833   -1.39327831509193
C          -0.79501576938121   10.51948547923997   -1.21701839082241
C          -1.16554443505767   11.21011610584490   -0.10521427335748
C          -2.18322111573033   10.57378766742857    0.64183870508311
S          -2.67690095018798    9.08412241632027   -0.13197477214995
C          -2.73188036154935   10.95454199156687    1.85152301062349
C          -2.35935962459443   12.02460605213389    2.70477744686013
C          -3.03796327656073   12.03578227251744    3.88188375317267
C          -4.01013242889963   11.00180827762455    4.00274687763161
S          -4.02483967456746   10.03204218800140    2.55684607248551
C          -4.75787119690077   10.71330133929701    5.11664962326807
C          -5.74572618902489    9.71221174085835    5.22565330251790
C          -6.67147287097383    9.21314148737356    4.30548893995239
C          -6.94942329243717    9.79638345732430    3.00603814851628
O          -6.42181642629803   10.81412275773984    2.57967258257169
C          -7.90225944898649    9.01483090755969    2.19838260925550
C          -8.69281797408451    7.96883641638459    2.74089693710396
C          -9.49494993436409    7.38536810338501    1.79230562755374
S          -9.29449788017985    8.07577948172063    0.23424519138612
C          -8.13263431118445    9.18198034295785    0.85375332722295
C          -7.47557658918029   10.15248096064544   -0.07415681619866
F          -6.14008940659650   10.05264267599487   -0.07574446481287
F          -7.86319997320507    9.93710711323217   -1.34568937421470
F          -7.77874305643633   11.42639754785597    0.19342566394212
C         -10.42310090953818    6.22927780487315    1.98143600173730
F          -9.87442427634869    5.23724710874186    2.68542812187767
F         -11.56245306427838    6.57307571989287    2.59171644119540
F         -10.77668622871265    5.69894117071277    0.79473658850727
C          -8.60028671623171    7.56129329916597    4.15591781203420
O          -9.44876624255825    6.89250077682393    4.70934557319283
C          -7.41821874639010    8.11464161457591    4.82020830852326
C          -7.03676658731249    7.74624017694558    6.09949974517929
S          -5.85720256573140    8.84149096326031    6.74520359873987
C          -7.39575413679463    6.52045988931414    6.73448864837514
C          -7.48302928059855    5.31185980142206    6.07195018946239
C          -7.80971099000004    4.27041762762313    6.93614040542924
C          -7.99019691106880    4.69394239065399    8.26031991206153
S          -7.70948008657457    6.36509226596202    8.45018791908691
C          -8.36763473356678    3.56148006118146    9.04063083146823
C          -8.41825271919999    2.43820614348036    8.20551215267024
C          -8.03848506987389    2.83496290997525    6.86186467664686
C          -7.85856257873142    2.03676131405806    5.77012093369112
C          -8.10645710610567    0.64764736175896    5.80038092810160
N          -8.29734039666119   -0.48270123595876    5.82260776297297
C          -7.34170324408616    2.52315185781238    4.55308428724565
N          -6.86459095843775    2.87947466227620    3.57226463351845
C          -8.78384415290352    1.26895483088265    8.89884818655067
C          -9.00154812525661    1.52401447195365   10.21897944415347
S          -8.76573898994264    3.18305667303318   10.65607249030992
H          -8.09605176032371   -1.93816233353111   -0.55175292774093
H          -8.71859809380975    0.24085525800758    0.74551456951158
H          -5.05871754490778    5.09837228649184   -0.57618616110675
H          -0.39391001003016    8.63257795719589   -3.06079146949281
H          -0.03580518189265   10.83382630097908   -1.91055904587279
H          -0.74166327874576   12.15051497736810    0.19718025826376
H          -1.59606120635194   12.73174411596161    2.43466922398884
H          -2.88738292659995   12.75434328273207    4.66792387530873
H          -4.50109585962143   11.23555311112689    6.02999580738526
H          -7.30585949200525    5.20807125385070    5.01735662994392
H          -8.88416963036081    0.29644676980226    8.45276460941184
H          -9.29225852963198    0.83024262870199   10.98219122515424
