80
 SCF done       -161.570315831240          0.000584825782
C           0.28956433724422   -2.79023434507439    1.98629373879959
C          -0.44806203030907   -2.59465133443229    0.85820922997119
C          -0.62981821875934   -1.22329290407576    0.59649353246643
C          -0.01153470766219   -0.41105860771488    1.55383882944230
S           0.78304937641581   -1.32105796731995    2.76026981945741
C          -0.24619617189100    0.95120115562425    1.21322139481612
C          -1.01287075614596    0.99224081169690    0.03952580280964
C          -1.28000289684677   -0.37576497826266   -0.38782734846648
C          -1.99100085517267   -0.77553780581453   -1.48062041441250
C          -2.58580501488521    0.13539744604728   -2.37986519072918
N          -3.07794657580108    0.85701083965049   -3.12247859456492
C          -2.18286195899795   -2.13849138425653   -1.79127526016419
N          -2.34082463657408   -3.24475674021584   -2.04870207401870
C          -1.29959476799377    2.29269873651384   -0.37806454276535
C          -0.75690755086264    3.23948432038580    0.47035470590160
S           0.12333469133019    2.50511086029776    1.80517150191063
C          -0.84988450741101    4.66064125046800    0.36522848594985
C          -0.27925706193668    5.53748976592981    1.27236233069327
C          -0.38343499816894    6.92758811166854    1.17417109135665
C          -1.06750038181679    7.57830806395911    0.15860892422277
C          -1.66540536680980    6.71735638407826   -0.80701682978634
C          -1.55749786645563    5.27953210599559   -0.70243679032345
N          -2.20544634281715    4.76221690126790   -1.72613702008190
O          -2.68510540251565    5.78439260963072   -2.42381182343921
N          -2.37436511250797    6.96504889892448   -1.89195098611535
C          -1.17924322634833    9.01508006226026    0.08654945013425
C          -1.86255624529307    9.66342851733573   -0.93176878205553
C          -2.00611139304336   11.04999606166860   -1.00911522955619
C          -1.48377117008039   11.92819370479306   -0.07294647229767
C          -0.75863119566941   11.31285753756869    0.98557151150815
C          -0.60521691704261    9.87725811932645    1.06489551480111
N           0.11183453148553    9.63298606252364    2.14528268162298
O           0.38633043858198   10.81428270900584    2.69722448265215
N          -0.12696865682713   11.83262924448712    2.01761030576088
C          -1.65729178073660   13.34169337817484   -0.13645953820257
C          -1.22846038719520   14.29221879513680    0.77156909308206
C          -1.60140981008097   15.58242160459351    0.39561993696780
C          -2.31707672783359   15.61400036622193   -0.81723613534681
S          -2.53282023328450   14.06182743149586   -1.48649239747334
C          -2.65526996886681   16.95517184786821   -1.11038604022895
C          -2.16262964680586   17.77737881625070   -0.08445231725547
C          -1.48062072411294   16.94062423787676    0.89530947925456
C          -0.86441341094019   17.35665657767417    2.03855871316044
C          -0.82192366695857   18.71652227478797    2.41194345053163
N          -0.78538705590889   19.82079852048241    2.71944774782064
C          -0.22881270629557   16.46579761160377    2.92971522414951
N           0.29358629120472   15.76032000262238    3.66700065635184
C          -2.45453245015988   19.12573855047738   -0.27985512285934
C          -3.16308468257599   19.34431458148128   -1.44920297299630
S          -3.47257597244028   17.84614174485719   -2.32029986621095
C          -3.62109279624220   20.58864008171323   -1.97093872289470
C          -4.27693936865440   20.69520832684151   -3.17119707110284
C          -4.73883526614823   21.88781544557176   -3.73135710212616
C          -4.63080681714711   23.15526136081947   -2.98464908530414
C          -4.01464666470878   23.28203301172620   -1.79089827944397
S          -3.26853624282336   21.98548827092993   -0.95274245777014
C          -5.28690767654968   24.12254382896852   -3.79054259919001
C          -5.76120348365795   23.51247131803748   -4.95533198061045
C          -6.41488259936409   24.43161048848910   -5.80767668922316
C          -6.42289146852193   25.68241334799039   -5.27966980974221
S          -5.64010976920973   25.80314063177040   -3.73728260193892
C          -5.40765752751295   22.12231170794513   -4.93792822853108
C          -5.72024677413503   21.22124346634420   -6.01509140723490
C          -5.06903784175754   20.10519979866020   -6.34024248204883
H           0.58328714672799   -3.72262726628458    2.42530829684499
H          -0.83659575724009   -3.39340127314170    0.25348633169994
H          -1.87038898485030    2.56422236079451   -1.24723325401580
H           0.27467306837164    5.12943435933844    2.10569511242828
H           0.09209497880594    7.52833689102383    1.93297688563068
H          -2.31431603681577    9.06190671307657   -1.70421773341281
H          -2.56323981836295   11.45547598314281   -1.84150980551276
H          -0.67626637628562   14.02869867388624    1.65526537701686
H          -2.17020056953628   19.92024008837688    0.38612845246488
H          -4.46352399658910   19.77378202857837   -3.70599281129787
H          -3.93769268547580   24.22609293341683   -1.27451478285654
H          -6.85424944018694   24.18655190180770   -6.75766445865702
H          -6.84672005885831   26.57204779753131   -5.70320299454897
H          -6.55350061860555   21.53781013256233   -6.63151336604184
H          -4.19053900419026   19.77090305732154   -5.81695708758009
H          -5.38224600629778   19.50263397688060   -7.17539153170940
