73
 SCF done       -145.008514351893          0.000758834981
C          -3.09539216438315   -3.09008674602107   -1.29212844223991
C          -2.11081512110215   -2.81884166499028   -0.39090767547315
C          -1.98684287340242   -1.43367952794764   -0.17102302057897
C          -2.89875649290576   -0.68997284164414   -0.92642725285461
S          -3.89631333269848   -1.67846769066059   -1.89551748628428
C          -2.69914186022456    0.69425422345255   -0.64458790942206
C          -1.65943318056593    0.81270425222923    0.28504889733317
C          -1.17947692086113   -0.52132583746412    0.62078697986864
C          -0.18764970717413   -0.84072192371574    1.50103218611177
C           0.52008036844884    0.14495889678667    2.22073657929595
N           1.08987075142268    0.94967906425567    2.80607902285265
C           0.19174928631044   -2.17563683404734    1.75477419283519
N           0.50357111928544   -3.25906379515284    1.96336354555690
C          -1.37920988207640    2.14166155474738    0.61926864461060
C          -2.20254204136008    3.02680173391622   -0.04136689075199
S          -3.34474959988539    2.20356594734128   -1.09721030140245
C          -2.21304275416352    4.45924737867792    0.04718466108931
C          -1.17686054691403    5.19953461385014    0.64127697178067
N          -1.19671884419008    6.50896778209897    0.71269645194325
C          -2.24614326002872    7.14731918866237    0.19502363434814
N          -3.28510724523675    6.54693859686459   -0.38690456369823
C          -3.26527912850464    5.23726556472782   -0.45896531834958
C          -2.25739793181761    8.59993894638959    0.26447025630529
C          -1.11893677235383    9.33492944436819    0.61168009016151
N          -1.13458299780489   10.64687282778302    0.67840885432016
C          -2.27535413480326   11.26944468965732    0.36387573942464
N          -3.41404541146162   10.66337110191930    0.02675101443781
C          -3.40649960809501    9.35024934940757   -0.01221415625865
C          -2.23957032384386   12.70524997097368    0.38113544258554
C          -1.08790580725072   13.44890783079346    0.50205894271528
C          -1.36411906059922   14.85224809388090    0.52123210015052
C          -0.47142265423681   15.91996847669864    0.57715864597258
C          -0.96887318645598   17.21353971826250    0.59616971688090
C          -2.35201798325700   17.46137863704872    0.53635960739629
C          -3.24089789716613   16.41607024457252    0.44470068708468
C          -2.74826459626304   15.11584376980015    0.43472113341946
S          -3.68644257791640   13.65797281564516    0.31897637232864
C          -0.06794457616554   18.30003361115048    0.68085154168385
N           0.66779455537167   19.17632234428844    0.75092769717441
C           0.21537979275883   12.82606532160043    0.55501901889998
C           1.13787429554915   13.07358633216730    1.51010099541985
C           2.49900863230063   12.55841601494829    1.57995304786534
C           3.02452610776387   11.54243846400341    0.82983751815084
C           4.34855742414679   11.06991387798420    0.95917823993125
N           5.41419490994303   10.64756577751885    1.01557110506231
C           2.31813225200784   10.79223769956581   -0.13456285755998
N           1.82102354502076   10.12517162875861   -0.92613559690936
C           3.18120557227941   13.28211258318007    2.64308430178861
C           2.24327339940155   14.10951808408390    3.31426849446115
C           0.91854208856288   13.95885944961502    2.68876078427280
O          -0.13021249410311   14.43533045190289    3.06317305510832
C           2.59245045744441   14.91516312958790    4.37158147603845
C           3.92895323543442   14.91436523113584    4.78078167735781
C           4.85906711784849   14.08891418381636    4.10224136216995
C           4.50648196320635   13.26807329957704    3.03852672357901
S           6.45120643198188   14.25472042798139    4.77201967900309
C           5.87155835702917   15.40178187752797    5.92896265303495
C           4.54840444009361   15.65491627494939    5.82617082859568
H          -3.41077210313278   -4.04945147730265   -1.65056612128841
H          -1.51171355239396   -3.57375551497090    0.08434152413668
H          -0.62221128510188    2.44651240131750    1.31811873506316
H          -0.30345218112994    4.71821049641986    1.06066488306304
H          -4.12205689670694    4.77332191408833   -0.93439083893540
H          -0.18290212659828    8.84112568118100    0.83278560571571
H          -4.33547471037432    8.86320074452141   -0.27511929243776
H           0.59375230306951   15.74534584377336    0.61125727938610
H          -2.70474975150569   18.48136500152660    0.55685337574905
H          -4.30284807700537   16.59346044335983    0.38337667726467
H           0.44119577145002   12.13782656663900   -0.24784951925347
H           1.85577653012779   15.53216957214329    4.86231685379802
H           5.25134297743153   12.66139639737225    2.55084791304456
H           6.56939032763870   15.82369419049232    6.62590451096745
H           4.01519963985375   16.34044382091713    6.45953931506472
