102
 SCF done       -200.033265644784          0.000553272489
C          -0.41816242947937   -0.69291751940462   -7.86438259134191
C          -1.18675597480060   -0.79054876997031   -8.99018623879472
F          -1.03351365492117    0.08986037542950   -9.98927938271131
C          -2.14700448117871   -1.81371364888525   -9.11648215292993
F          -2.88635064162401   -1.88708798656784  -10.23282073204103
C          -2.32667762991548   -2.72473681266061   -8.11371455421290
C          -1.55023383856543   -2.65062119835713   -6.94126077624539
C          -0.57796858197363   -1.61718849414996   -6.81233778891262
C           0.21562402916999   -1.52565685065335   -5.64571825851571
C           0.03837313431824   -2.43639049880835   -4.63728943333380
C          -0.93557199820881   -3.46310558665839   -4.77445509618224
C          -1.71050832064918   -3.58189330183637   -5.89106524256219
C          -0.91500469814536   -4.32708150461568   -3.57557161142469
O          -1.51795005669842   -5.36955688243772   -3.44102046280354
C           0.09957591816915   -3.72788125764091   -2.67207756482672
C           0.69539652963535   -2.59025345353814   -3.34178008471998
C           1.65894275481545   -1.75378926501967   -2.83759976765197
C           2.25816850548949   -1.87312925701669   -1.56676800949058
N           2.78821905544237   -1.89553693890483   -0.54790959108726
C           2.18204853373819   -0.64246768625329   -3.53020790214556
N           2.65033243814597    0.27198506230165   -4.04316066739846
C           0.50100056711753   -4.27769308661482   -1.48811758878941
C          -0.22389032021695   -5.25210202459250   -0.74421146669633
C           0.43151198635015   -6.22384626015327    0.01970550864953
C          -0.22705357945062   -7.23694203108203    0.69494045516850
C          -1.62443528554659   -7.35204142503428    0.71975785977637
C          -2.31304231330271   -6.32467073543490    0.01995493857461
C          -1.63646102932213   -5.29552264846834   -0.69254235838052
N          -2.56908783063667   -4.46617992960168   -1.17813819852927
N          -3.69782539876008   -4.99388459382656   -0.79625008733175
N          -3.62706164346114   -6.08725598369384   -0.08884480071908
C          -4.95568382059926   -4.41700522761229   -1.15595335942342
C          -2.41119595110719   -8.36432790422954    1.31892812834111
C          -2.07510277295141   -9.42080483380723    2.12871785356062
C          -0.86596547960434   -9.83015817050241    2.74440360830162
C          -0.96778686981447  -10.97041660242214    3.48281418723688
C          -2.26286691142819  -11.53521643871447    3.50058078380560
S          -3.35555786141100  -10.55211304879449    2.56298382381451
C          -2.68001166087583  -12.69163379615859    4.13483695478480
C          -1.91401295501686  -13.59804183997949    4.89980830945801
C          -2.62933128801760  -14.65439842155152    5.37438328143431
C          -4.00477667434448  -14.64806415646689    5.01897874689662
S          -4.34111461733460  -13.22745528911065    4.04841993698928
C          -4.89991259356943  -15.62286625838567    5.38332209795507
C          -6.28287141708254  -15.73386807057696    5.11533310909582
C          -7.08325089785914  -14.81411206011902    4.42265234200712
C          -8.43848379152013  -14.99917000755975    4.22919218291029
C          -9.15841614440536  -16.09365492049620    4.72920689349881
C          -8.37258846272050  -17.06775425125433    5.39353701880426
C          -6.97314869541396  -16.88285672425768    5.58317074250268
N          -6.51062242867387  -17.95911115404894    6.23296989346467
N          -7.55905333060091  -18.71380208278724    6.39939921603375
N          -8.68892116883821  -18.25739458198283    5.92503411983960
C          -7.49049150406928  -19.96467232217807    7.08933966061826
C         -10.55849801168057  -16.17486699450723    4.50374388929543
C         -11.51691325087067  -16.93344280702021    5.11127576985694
C         -12.81280299272884  -17.14821341810370    4.41485264622371
O         -13.23194363240003  -16.54805375800574    3.45116156772749
C         -13.44631771653149  -18.28566760650959    5.11671115199992
C         -14.60358130007016  -18.94273933048886    4.81638068814251
C         -15.00876207225391  -20.02688923023919    5.62798811220956
C         -14.19993986316900  -20.41018079767903    6.73677361074124
C         -14.60797890233146  -21.49509431886455    7.53825996347504
C         -15.76518843389754  -22.16479555310456    7.25524343198794
C         -16.56509342302154  -21.78318016090305    6.16050960113632
C         -16.19572252981484  -20.73662394407482    5.36276149471035
F         -17.69571633745129  -22.45813960655605    5.90592982623634
F         -16.15066847352346  -23.19592986568638    8.02083223900705
C         -13.01014736294700  -19.70370759074322    7.02862667947144
C         -12.64023095530953  -18.65401331458444    6.23181628157831
C         -11.51631060789846  -17.72605873256333    6.31380971564002
C         -10.74031054712362  -17.51219378094215    7.42532607962737
C          -9.92035394533465  -16.37812458808249    7.58925129425780
N          -9.27595461098753  -15.44896680735838    7.78849495575087
C         -10.69974577361791  -18.37323779117305    8.53557384915692
N         -10.56569847730420  -19.07811426962109    9.43338198968019
H           0.31258269016390    0.09666094242881   -7.78412900714219
H          -3.06518979080385   -3.50305479332781   -8.22600064268939
H           0.94842261914015   -0.73761102855588   -5.58376738134989
H          -2.43684309161675   -4.37631754389848   -5.97186063291239
H           1.45641693077227   -3.98401096275725   -1.07082320666653
H           1.51232692018195   -6.21445569159986    0.03023372171402
H           0.37379674357096   -7.98083845067382    1.19007107027097
H          -4.90459192690476   -3.33603074781529   -1.03486843168725
H          -5.72290705437520   -4.84190205166922   -0.51275195519983
H          -5.18373143071017   -4.64465674940386   -2.19884670597910
H          -3.46417132603068   -8.27974048637898    1.07851082216192
H           0.04610030978745   -9.27049126148925    2.65762715396869
H          -0.14725795731774  -11.41553181452905    4.01663136762688
H          -0.86386620108428  -13.45000234385009    5.07592961480788
H          -2.21676095826955  -15.44588318574889    5.97446797598044
H          -4.49297309077941  -16.43889643811712    5.96767938614525
H          -6.63509681567558  -13.91603223026530    4.03000617475636
H          -8.98921707113093  -14.23633554391953    3.69801015214122
H          -7.85151995817824  -20.76408127626179    6.44193262122492
H          -8.11613471071408  -19.92908723989673    7.98304078574867
H          -6.45394139521964  -20.14029461781747    7.36569383479851
H         -10.92637973119406  -15.58063949339279    3.67153685277233
H         -15.20480780183849  -18.63945664188111    3.97274184906152
H         -14.00914405061979  -21.79874406448982    8.38267976717405
H         -16.81898688646454  -20.45655547004380    4.52800686096466
H         -12.41560218994583  -20.01450819248258    7.87305723080522
