81
 SCF done       -175.969732877196          0.000431568777
C          -1.09549141161465    2.07905384553971    1.51427153186125
C           0.25460477125125    2.28963584267597    1.51576035278852
F           0.74311998982984    3.52565253049076    1.67348047959682
C           1.14963293455227    1.21228179787959    1.35101100982373
F           2.46723801826499    1.44937880346308    1.35531887719845
C           0.68127243044946   -0.06103547579954    1.18707455492788
C          -0.70511703503584   -0.31051520713335    1.17933367707876
C          -1.61119649917639    0.77747677613219    1.34691161020699
C          -3.00562516429458    0.55138303308982    1.34202449975372
C          -3.48138683884681   -0.72423301248002    1.17572086076301
C          -2.56941131420433   -1.80309130609971    1.00412704457670
C          -1.21675233453966   -1.61451061647602    1.00296553491603
C          -3.31437896211116   -3.06163371353164    0.81824749551110
O          -2.85020693642551   -4.15042113236584    0.57463945490076
C          -4.75887495217283   -2.67831731325210    0.87538755675583
C          -4.84198735520486   -1.24556342156409    1.12851047603740
C          -5.98410651048406   -0.52805324992354    1.35082101207095
C          -7.28988240159864   -1.06623904558849    1.35082651765876
N          -8.37583223565214   -1.43661784500870    1.37332159921539
C          -6.00729572640975    0.85677303684969    1.62718268549378
N          -6.08858783032288    1.98004571983121    1.84606181896873
C          -5.77118259936092   -3.51798693893888    0.56481117878210
C          -5.62557805680579   -4.95277857248801    0.42374026469926
C          -6.19418471489479   -5.62121000363686   -0.66060488247301
C          -6.01822939805122   -6.97706194272456   -0.82035409136456
F          -6.57705519212419   -7.54866067136902   -1.90335253396638
C          -5.31047863728446   -7.76051889125890    0.10319433137242
C          -4.80650124617336   -7.09561628749936    1.22633071117301
C          -4.95134631233017   -5.73549265085635    1.36895586681715
F          -4.48797174380002   -5.16010602665980    2.48870906314840
C          -5.10811340614548   -9.17947820435244   -0.06463528240815
C          -5.20574444878732   -9.94426407407527   -1.20442284147472
C          -4.90351150738438  -11.29281968854352   -0.99930964307668
C          -4.58455956468389  -11.59160562510012    0.30554580666618
S          -4.64765173829903  -10.16208640249494    1.29246244968708
C          -4.25232594088959  -12.86509382352193    0.89405442433493
C          -4.32644275966030  -13.05393706550251    2.27765636267258
C          -4.06085927227415  -14.27980095977937    2.83968970555864
F          -4.14524427437961  -14.39049793268730    4.18048728084442
C          -3.67328661819737  -15.39219762561259    2.08160026498638
C          -3.53082196892634  -15.18567815876741    0.70633491526315
C          -3.83606166547805  -13.97190434926464    0.13770959382136
F          -3.68739915797279  -13.85894978357223   -1.19389921775620
C          -3.35517442550053  -16.68086114603816    2.64530742921378
C          -3.87131935762067  -17.31870626887772    3.71874049006041
C          -3.11940651431588  -18.48053101879549    4.29057242102549
O          -2.20768093718652  -19.07183650529521    3.76509778600817
C          -3.69764966103984  -18.69368644784521    5.62963644313323
C          -3.28681376091446  -19.54661285959531    6.61415566027723
C          -3.98289788963908  -19.56248842548190    7.84287725754889
C          -5.09118061738811  -18.68529037053434    8.03057005934796
C          -5.77654807262021  -18.70122195074047    9.26235008871114
C          -5.38248908934570  -19.54917485793574   10.25883832999909
C          -4.28699112025853  -20.41705355174635   10.07158810091117
C          -3.60118178080431  -20.42472238456696    8.88957444073395
F          -3.92277828835629  -21.23602473864339   11.06631505303288
F          -6.03506619157696  -19.56426671179357   11.42737359047656
C          -5.49660654689838  -17.81699442386537    6.99206811353449
C          -4.81414962721402  -17.82648381734126    5.80430373693205
C          -5.02416928485431  -17.07729032975945    4.56973124225225
C          -6.18746749717802  -16.45679413777276    4.20956778774635
C          -6.43486023924419  -15.93112212193789    2.92513072918012
N          -6.68853037273974  -15.51637344685891    1.88566485568832
C          -7.30894834091898  -16.33719797882461    5.05877444282949
N          -8.24439623420433  -16.20977416054438    5.71025251506903
H          -1.76607279508868    2.91433138963264    1.64277103458629
H           1.37863921108482   -0.87445810817827    1.06182100147681
H          -3.66462170707425    1.39573947452045    1.46389698374089
H          -0.54817684712224   -2.45139194708961    0.87005932865894
H          -6.76246153375247   -3.12742803797795    0.37354336328118
H          -6.74791255268759   -5.07339288291694   -1.40725487759750
H          -4.27684959560510   -7.64673007406035    1.98794032450676
H          -5.47115799174940   -9.54757951841983   -2.16632149109631
H          -4.93806390396213  -12.02331069051902   -1.78548580042385
H          -4.61807652558274  -12.23750791063574    2.92020368690564
H          -3.21390888765356  -15.99642146896843    0.06916766903678
H          -2.53823853662343  -17.20575922463429    2.15768051297834
H          -2.44149852332792  -20.19923717917871    6.45740639414292
H          -6.61876100759836  -18.04601223211989    9.42100620783751
H          -2.76516516628216  -21.09445450308990    8.76217681515342
H          -6.33066219945087  -17.15577379974877    7.16437589562813
