64
 SCF done       -128.455890303056          0.000387938269
C          -0.15984987170994   -3.04407696069881    0.91752379900923
C           0.62863682949515   -2.51458943362380   -0.05757935013327
C           0.52331953200142   -1.11058957179530   -0.09603570852873
C          -0.35902724969034   -0.61433809893186    0.87169035423814
S          -1.04991810866501   -1.85736493443430    1.81521006573031
C          -0.40330466499988    0.80438988655755    0.76355390317082
C           0.45163382553905    1.19647328266214   -0.27701709294149
C           1.06552571393233    0.00295462353228   -0.84979966613810
C           1.96551369973008   -0.04442269127599   -1.87447342294920
C           2.41949986612246    1.12036358408931   -2.52706093522310
N           2.79126262469317    2.06648803507785   -3.05825095781193
C           2.50387898791037   -1.25923148759846   -2.34758245876716
N           2.94491888742586   -2.24409302387404   -2.73562848045154
C           0.48412692519922    2.57678911614172   -0.46745063599346
C          -0.33875483433121    3.24617727807056    0.42408237950813
S          -1.16334707037180    2.13523206084942    1.51018535142053
C          -0.57452905827128    4.63752135941290    0.57034112128126
C          -0.03638810864920    5.59809926917516   -0.22087074336319
C          -0.24769694058620    6.99072692522511   -0.05515448808804
C          -0.96603209182699    7.66750959834333    0.91753776004700
C          -0.91080157669425    9.04917249399201    0.74703442915310
C          -0.14730769026089    9.43690329132137   -0.36930669686440
S           0.50068266990557    8.09679722689623   -1.20207177797579
C          -0.14060448952049   10.85159476074591   -0.44330473148304
C          -0.89588304892507   11.36110664608779    0.62884178134810
C          -1.40751956137918   10.24526232459030    1.40900586552209
C          -2.18323018149017   10.30742301488836    2.52968037053682
C          -2.59808661379160   11.53455866205385    3.08739853908363
N          -2.93557725315214   12.53130968715652    3.54326956398303
C          -2.61885270757147    9.14856230945818    3.20521413106492
N          -2.97433278233820    8.20714996336289    3.75535224608228
C          -0.93480886643407   12.75357822883078    0.65624694221420
C          -0.21683791040464   13.31801370319717   -0.38587304237261
S           0.51052926717745   12.09093545563146   -1.41751457680162
C           0.00934138775607   14.68319320698913   -0.69667017717716
C          -0.43487419595534   15.72700288161655    0.04591027309020
C          -0.18409632876029   17.09161037364685   -0.25048610121737
C           0.50094398425249   17.65462310653969   -1.31528931207795
C           0.54616139926770   19.04525979063854   -1.23412492873770
C          -0.10708177693995   19.55205044094457   -0.10104265577727
S          -0.78146874960152   18.31682142731109    0.86116490073860
C           0.00865552595945   20.97084722001082   -0.11215028573230
C           0.73154329040742   21.35297485502128   -1.24914054581866
C           1.09243270556706   20.16369439194377   -1.99577475112720
C           1.79249514399592   20.09486279280720   -3.16511244787069
C           2.27656193557596   21.24569389085831   -3.82136334618609
N           2.67370825813694   22.17750759951488   -4.35896102375912
C           2.07655811007658   18.86649397179979   -3.79685116795230
N           2.30806925984366   17.86752893523610   -4.31046796736103
C           0.89761792274603   22.74890088382766   -1.33624592464749
C           0.31002383884829   23.38428174881441   -0.28556044257348
S          -0.46030197828509   22.30992750648038    0.83635719625955
H          -0.28137336967022   -4.07677389761980    1.17625753890937
H           1.24861624085436   -3.10257033820763   -0.70928952214831
H           1.07790253483667    3.07557324676253   -1.21048925135051
H          -1.23257622571533    4.91973329488198    1.37995640740573
H           0.60670232276052    5.31476234460397   -1.04197850007384
H          -1.49389080272256    7.17313580014112    1.71158645623852
H          -1.45707326823181   13.33324321751331    1.39436367210483
H           0.59347957864558   14.87172103056529   -1.58621327180476
H          -1.01175936034823   15.53875474927574    0.94027909310840
H           0.94121169456747   17.07586059887457   -2.10563244045834
H           1.41999008624424   23.25770137700868   -2.12560488239383
H           0.27674268786439   24.43713696714741   -0.08916042910077
