102
 SCF done       -218.576929665139          0.000638244884
C           1.31594763491977   -2.29805902971925    2.55333421680642
C           0.86757274596131   -1.93255928649764    1.32252088900403
C           0.60540707805487   -0.54929155091749    1.25899057997418
C           0.87664945233860    0.10227238948030    2.47435443309250
S           1.44187893281657   -0.97665082036719    3.67255363144316
C           0.60038130126181    1.48448380959455    2.32085477053754
C           0.13844939343651    1.69696990474231    1.01183103678311
C           0.16342117514671    0.42852506435039    0.29485021183631
C          -0.09226325909081    0.25401215927452   -1.04127968687665
C          -0.37879936370904    1.35605262199744   -1.86536722778586
N          -0.57323722920583    2.28424076593362   -2.51435063356707
C          -0.03216603513449   -1.00601841233608   -1.66495029860144
N           0.00774768288234   -2.03367167596707   -2.17455763482639
C          -0.19856069536065    3.02159399199583    0.75639343539147
C           0.03659800366496    3.84262303716191    1.84567218969868
S           0.65233411715995    2.93270538846734    3.22495072216795
C          -0.09291022447565    5.26284381156670    1.94133196024115
C          -0.23016107893195    5.80094287358014    3.30866321032485
C          -1.22764240097938    5.34055416159799    4.16968373868058
C          -1.34785922813729    5.81326217489461    5.47037250017983
C          -0.45475535822644    6.77047159336219    5.94303729409967
C           0.55168262085401    7.24270531577952    5.10570466196902
C           0.65768527195474    6.75521292391582    3.80963582428634
F           1.64011658185517    7.21906217532537    3.03140075809716
F           1.41105757242669    8.16254494536783    5.55002089744641
F          -0.56544850913074    7.23600982181238    7.18713079367132
F          -2.32085313328386    5.36202095316559    6.26367097758864
F          -2.11615757850311    4.44614312856982    3.72875392845767
C          -0.01529742265055    6.11377592613472    0.86139944149819
C           0.40148687457412    5.62292367370677   -0.46899703420795
C          -0.39951189544769    5.84802960584246   -1.58948364075428
C          -0.05507985650807    5.38350055855496   -2.85344964829186
C           1.13884825095559    4.69077436489285   -3.02627175070833
C           1.97008141370666    4.47761221411347   -1.92933814200185
C           1.60063150988044    4.93886674703272   -0.67346461865930
F           2.41700990240531    4.71481154218144    0.36187713977096
F           3.12509784911100    3.82488227179372   -2.09024230980915
F           1.49741197578895    4.23663882333586   -4.22400970166827
F          -0.87093268568374    5.59952270554886   -3.88245619678364
F          -1.55675976937906    6.50399936001242   -1.44368031759409
C          -0.29873697339732    7.52442950005655    0.92776399349845
C           0.44215597794522    8.42809186646898    0.20063641786422
C           0.33291542579676    9.81006010114972    0.29601774844699
C          -0.57824131225099   10.42974143573730    1.26407051051837
C          -1.46339254079510    9.74376813286423    2.01708170366438
S          -1.62392154119852    8.03170627975815    1.97129810121632
C          -0.26754739252252   11.81912825972544    1.24306458793425
C           0.77408088159570   12.05569269952475    0.34845146504715
C           1.13084589697876   13.42038206480442    0.29414675053182
C           0.36812292607143   14.16812352756320    1.13451122662754
S          -0.80723595475102   13.25375250701939    2.01802817742391
C           1.14458446330731   10.81517613560640   -0.28709618862971
C           2.14101112381558   10.69215819921853   -1.26436361248460
C           2.24608153749180    9.67931581193396   -2.19158435822947
C           3.31643144125142    9.53551621064765   -3.06731981976564
C           3.35120464090742    8.62934619957002   -4.11278369461143
C           4.42276695716420    8.36566062955836   -4.98486482396583
C           4.13685902418367    7.45733648924723   -5.96947660101537
C           2.81667573960529    6.98064541594279   -5.93664510946885
S           1.95875603151935    7.66631485244564   -4.57517413306425
C           2.17714068595888    6.15013818539670   -6.84935645176894
C           2.73163529899958    5.48996728040856   -7.96163103899687
C           1.81451799284309    4.79546926813490   -8.69698342605658
C           0.49006065092231    4.87922013369046   -8.20726034514480
S           0.46042009406211    5.85805145015668   -6.76003886249129
C          -0.61223396355278    4.30813399356473   -8.80623963037913
C          -1.96135622347982    4.35831211190830   -8.41734276833411
C          -2.94261801315111    3.79049234411661   -9.22227005968888
C          -4.30337748822134    3.80218899535586   -8.96084632825438
C          -4.82366270136576    4.34375457182316   -7.69361301195158
C          -4.05275937520528    4.94425487526364   -6.76064864402623
S          -2.36184271602285    5.16788045816096   -6.90466933866381
C          -6.21806524223758    4.08780753348339   -7.71755407624573
C          -6.55449001606374    3.44343751451230   -8.91504124550773
C          -7.94190479857910    3.17654492403707   -9.00151297663946
C          -8.60291038591847    3.60849289805334   -7.89872283776794
S          -7.58310393046027    4.35932663273602   -6.71096525233126
C          -5.37922707136691    3.27889582193997   -9.70923037979737
C          -5.39443725786844    2.69679657206984  -11.02155270304320
C          -4.52328989680837    2.91633753987135  -12.00747778055508
H           1.58900748061104   -3.27792701615230    2.89037940457205
H           0.73020402701598   -2.61953991362441    0.50738662218823
H          -0.63880133796492    3.36883952061655   -0.15886230712377
H           1.24015988548767    8.02118700348473   -0.40462086686095
H          -2.13622225026030   10.22080318627188    2.71149718675012
H           1.90542528211390   13.83121683902639   -0.32755016350241
H           0.41698708645369   15.22664237327379    1.29981642004280
H           2.86025941309709   11.50042033582938   -1.31902958298186
H           1.43066851029111    8.97469758868330   -2.29386066014005
H           4.18808141392682   10.16285788740979   -2.93307254126109
H           5.37544205496187    8.85143482761979   -4.86744920291366
H           4.83632078724704    7.14576586142783   -6.72411125720325
H           3.78113726988958    5.53453499161884   -8.19043494079977
H           2.05043749969220    4.22825174274326   -9.58015790143125
H          -0.41237634985212    3.76095425577845   -9.71964913462676
H          -2.59787832475851    3.29219709946815  -10.11727041352151
H          -4.45694491015964    5.34337198664677   -5.84348696491491
H          -8.42511805132362    2.69323982605797   -9.83130282512316
H          -9.65316267477056    3.53869881344487   -7.69203757870250
H          -6.24313901201515    2.05006177245837  -11.21238646740603
H          -3.70302543633438    3.60591340887424  -11.91309933929019
H          -4.63253597570109    2.43353815403972  -12.96328307616705
