83
 SCF done       -175.945246958663          0.000855686872
C          -9.12769177985572    1.96330255406525    1.07265751643702
C         -10.38581070441694    2.22206550244115    0.60609724531565
F         -10.92208953648202    3.43901551066476    0.75554940169385
C         -11.13472466930257    1.21488354298359   -0.03695721885680
F         -12.36460740406173    1.49770370653355   -0.48361309079485
C         -10.61463102228126   -0.03786805713440   -0.20332747062862
C          -9.32118894107420   -0.33628762785945    0.26817056391975
C          -8.56156951176089    0.68165810578244    0.91612857890365
C          -7.26005729264965    0.40655548807444    1.39261438651591
C          -6.73389657127654   -0.84862186942559    1.22641504107642
C          -7.50329077417635   -1.86085882485572    0.58804675619062
C          -8.76291993598892   -1.62405218624088    0.11609672214181
C          -6.73748594482667   -3.12073361678307    0.54332148712899
O          -7.10965790055761   -4.17053630941067    0.07246232918030
C          -5.46514189596559   -2.83305499635632    1.26988339719545
C          -5.44270625634431   -1.41270862514849    1.59813449971195
C          -4.37117975025441   -0.71750935890776    2.08496424485693
C          -3.09484858959740   -1.27366922337580    2.32551729718597
N          -2.02861483469064   -1.65226651951415    2.51603620237800
C          -4.39340183845339    0.66561861049166    2.36799534241173
N          -4.35910117589418    1.78474339771840    2.61798111895422
C          -4.61140669932366   -3.76602600547436    1.75617242688843
C          -4.59902909511566   -5.17079956882935    1.43240115588880
C          -4.83029180953464   -5.67758255823072    0.15174231861015
C          -4.81909378412913   -7.03363109007341   -0.08098371894633
F          -5.03148948186415   -7.43906525952127   -1.34413477452526
C          -4.59927674952805   -7.98078762207223    0.93428132432718
C          -4.32354578083433   -7.46435651341665    2.20809134418959
C          -4.30574976031707   -6.10997417510149    2.43274542664897
F          -4.04978788946219   -5.67182958602162    3.67735522745073
C          -4.67311941170810   -9.40301212644373    0.72573032691425
C          -4.94418233953819  -10.10855384692676   -0.43036263100994
C          -4.99791066860776  -11.48641840408712   -0.20788979220543
C          -4.75741416136558  -11.83403923456476    1.13188473809171
S          -4.46092370042929  -10.47488812311194    2.10908798033343
C          -4.86749850585910  -13.24452297400289    1.26516876771565
C          -5.19537299949821  -13.77970346746792    0.00932579559926
C          -5.25193194417494  -12.70140605183818   -0.96525823494994
C          -5.45123487303154  -12.83279190408395   -2.30779491352256
C          -5.63164974075977  -14.09503061887565   -2.91319130001149
N          -5.76949774971258  -15.11889998182201   -3.41174230046854
C          -5.46842222253659  -11.73017818069696   -3.18927352432111
N          -5.48794448641960  -10.84532538734727   -3.91751374848303
C          -5.37313803561878  -15.16054642548911    0.03980124358878
C          -5.15241820419541  -15.67686089836722    1.30138095137706
S          -4.74280570735731  -14.44421716474381    2.47217510009952
C          -5.21314149216443  -17.06313992953617    1.66406728376940
C          -4.98588545160539  -17.55252057314348    2.91165174053842
C          -5.06754168186070  -18.95676311362597    3.16473291791922
C          -4.86817008401397  -19.48955733303230    4.42642773185603
C          -4.95501172219940  -20.86991835660529    4.66521439908716
N          -5.03130593260216  -22.00165373652345    4.84896834439956
C          -4.58063908890315  -18.67419580987554    5.53217420069660
N          -4.34986725068467  -17.99598031799291    6.43030404569763
C          -5.36236976183587  -19.77468978583858    2.02874509961673
C          -5.56740587569483  -19.21071535251273    0.81048291656999
O          -5.53382338171692  -17.86736569631808    0.61830652182690
C          -5.90409322329616  -19.95064350050142   -0.37881512908441
S          -6.81771604274139  -21.41338472880867   -0.22865683685088
C          -7.00171959831222  -21.55816109459856   -1.90971977101620
C          -6.38063431858193  -20.53557759805491   -2.59897029694890
C          -5.71912513060382  -19.61281844185985   -1.71796275903140
C          -4.94125614629419  -18.57121249267746   -2.30355278240807
C          -4.05620179122244  -17.76635869607351   -1.55552949271131
N          -3.27207875407039  -17.12672450617803   -1.01319659262107
C          -4.95848997316229  -18.40049772571404   -3.67073330133151
C          -5.68736539137644  -19.26213362136182   -4.51042308802405
C          -6.35975924029936  -20.33267335592465   -3.99876575434325
H          -8.56805348380133    2.74604569104987    1.56047814628037
H         -11.19994013826961   -0.79781772178180   -0.69688301176228
H          -6.71280876730060    1.19466234014455    1.88415655235765
H          -9.32322900587214   -2.41021831907328   -0.36673857223433
H          -3.90019695492787   -3.47101025192378    2.51939233824963
H          -5.00428198784091   -5.01503007423489   -0.67915526801281
H          -4.12472205520003   -8.12895759391110    3.03471165215205
H          -5.10524735178831   -9.65065446188422   -1.38810178794545
H          -5.64997827546481  -15.77019469163560   -0.79844006203133
H          -4.74048663541721  -16.88079907219970    3.71935316102751
H          -5.40647334911181  -20.84615823816256    2.14246669355321
H          -7.55931242926458  -22.37564783369606   -2.32166107676492
H          -4.38550020547965  -17.59529912204292   -4.10465893662072
H          -5.67641292570051  -19.08076252513207   -5.57378075147783
H          -6.87830297041255  -21.03198439441709   -4.63614201438932
