125
 SCF done       -255.048851169708          0.000727422331
C          -0.24991604374265   -2.88602609328475    1.77111617404033
C          -1.46404923392150   -2.75169878628320    1.16972687752940
C          -1.73888702714521   -1.40427228431394    0.86640096541756
C          -0.70398609936440   -0.54716145950201    1.25544411159236
S           0.59092427805202   -1.38587288728178    1.98479311250831
C          -1.06638527914712    0.78867013446594    0.91333488065860
C          -2.32983598256637    0.76440637507353    0.31065717124258
C          -2.79598918652116   -0.61568980035025    0.25888727566654
C          -3.97699084261427   -1.06478643127843   -0.25485292072959
C          -4.93079959913882   -0.19386117754409   -0.82266976496912
N          -5.71103252383654    0.50740929079201   -1.28536347579465
C          -4.32575685693104   -2.43178260948859   -0.25365884020280
N          -4.61308463975737   -3.54189314577715   -0.25631362485522
C          -2.77914155450153    2.03413999599905   -0.06108858853000
C          -1.86521452599071    3.01748165329441    0.25592404628195
S          -0.42588882702073    2.36698806029067    1.02376909415266
C          -1.98952502692080    4.41609439831421    0.02938516212552
C          -1.09782794694682    5.40134405120825    0.34509621299283
C          -1.53510124476684    6.69933430605466   -0.01040200207037
C          -0.85843105978866    7.92593906944370    0.16190751222105
C           0.49042102375478    8.00627170419067    0.68315869054951
C           1.02162307307727    8.96792909984392    1.49474641973513
C           2.39301312617489    8.76470009548477    1.75996649823230
C           2.93077529523707    7.66650795271969    1.15511091248828
S           1.71523198098836    6.84718200330790    0.23492682941029
C           4.32405146631047    7.15738491675868    1.21182882892655
Cl          3.29794195263977    9.82689949225642    2.76885083792038
C          -1.55358117918500    9.07233020159931   -0.21242615834001
C          -2.85054375060825    9.04239297639218   -0.77927005250255
C          -3.49944351060174    7.81293170316531   -1.01467524430996
C          -2.82902701942729    6.67300749908470   -0.59002236468920
S          -3.43526294785336    5.04720242901724   -0.72855178686779
C          -4.78225120616816    7.76732466433486   -1.68361403027835
C          -5.19264306530998    8.51244358191642   -2.75321827358270
C          -6.51445999015674    8.21747856885832   -3.14899730029221
C          -7.12636800686135    7.25735600764199   -2.39515523188902
S          -6.04819132942019    6.68746244625180   -1.16695587368954
C          -8.50048360972733    6.71172749369946   -2.52122197277230
Cl         -7.27468773839200    9.01880721905536   -4.47018373571471
C          -3.35628615848315   10.33774745628674   -1.03306231098947
C          -2.48140178228151   11.34268289594872   -0.72971471844734
S          -0.97255090971936   10.71077124214787   -0.08828393211829
C          -2.64824535969988   12.75180122911594   -0.84029198270455
S          -1.36344439117320   13.80136237853298   -0.32155158361513
C          -2.27090732713709   15.22815607776017   -0.71348964088659
C          -3.51505478920201   14.88025719613221   -1.22840658496435
C          -3.72654844481123   13.49457879794357   -1.30876821175047
S          -5.17719624321605   12.72913789487310   -1.94841849968416
C          -6.31221868924507   13.95841064414215   -2.52240666166532
O          -7.32106815170522   13.55190853161012   -3.02734844093687
C          -6.08876724585625   15.44796401695056   -2.39064064994852
O          -6.93776973767355   16.20784797944403   -2.76722289594937
S          -4.62956970946518   16.15793152039898   -1.70092174573656
C          -1.77981121575605   16.54039084674924   -0.51322168496067
C          -0.51416012075152   16.83691188389529   -0.13006227558898
C          -0.03045757933138   18.15232125974494    0.08272277885464
C          -0.73273267817917   19.34643399068284    0.11415490977889
C           0.09766787073120   20.43920027579012    0.34948869467690
C           1.45210584864952   20.08365647557638    0.48791190207581
S           1.69163147137609   18.40077388500599    0.35126578253154
C           2.20925743502093   21.26420769967503    0.70378921869314
C           1.33146666544452   22.36093429116238    0.71520837771175
C          -0.02318387622134   21.88106608018489    0.50051203403842
C          -1.16565856094078   22.62547196287648    0.46219578559201
C          -1.15449316633496   24.02498065744795    0.63836335838667
N          -1.15083523692669   25.16289013885726    0.78142826504670
C          -2.43276543395350   22.04206341582185    0.25192682845946
N          -3.46365833111159   21.56976743996497    0.08284373786311
C           1.98274781858107   23.57901220524752    0.91064450015283
C           3.34887197444173   23.41864502834355    1.04192942065472
S           3.83569897279906   21.73740217133669    0.92781168497131
C           4.31126136543283   24.45053440115350    1.23270479842105
C           4.05773805038655   25.77086281332330    1.47512428368690
C           5.22451248549314   26.56454403098158    1.58633438053641
C           5.31214618128759   27.94283682337876    1.86514872837400
C           4.14314627576751   28.78547995862301    2.00733428190314
C           3.95784793820249   29.82363269239305    2.87583488310299
C           2.70960387708407   30.46052641632570    2.70868306270229
C           1.93434610338867   29.93756366492473    1.71461530423630
S           2.75699549397545   28.61591004746307    0.96094395337486
C           0.58326990758204   30.35548547541409    1.26475442952361
Cl          2.21889310149046   31.78826773312272    3.68912920736832
C           6.59734067533838   28.46789197336448    1.98373501144923
C           7.77387885253679   27.69718052822692    1.82786654421636
C           7.68543156038341   26.32074125847321    1.54911543563566
C           6.40320878872727   25.79409958947723    1.43294474292817
S           6.02749879852157   24.11822876444637    1.13746201275614
C           8.85068008452810   25.47205596774973    1.39231963702615
C           9.03093706756385   24.46017812826681    0.49405568080167
C          10.26811772989053   23.79928190349264    0.65633588134489
C          11.03690981448275   24.27926734205214    1.67548364586025
S          10.22451590738459   25.59266299796814    2.45852187367148
C          12.37691459109400   23.82689815639670    2.12690222421148
Cl         10.75002374506314   22.49448519325315   -0.35926569204249
C           8.94497897610685   28.50374522375479    1.92991170302126
C           8.67057691152769   29.80414542698739    2.15745911900135
S           6.98075370078469   30.14413568199365    2.26812501138257
H           0.21871484928844   -3.78759183956254    2.11131141190145
H          -2.12032337971019   -3.57602511162982    0.95866758238871
H          -3.71935825960923    2.24883355657755   -0.53639137910564
H          -0.16337507551292    5.19310640217636    0.83310931686426
H           0.45911108681938    9.77485955672464    1.92544503179175
H           4.91235742509318    7.77696109850140    1.88395570775345
H           4.78109858316445    7.17710168242500    0.22268814769047
H           4.34261286077183    6.12827225948260    1.56866369643473
H          -4.56779101294363    9.21270362863008   -3.27582788453937
H          -8.98267804310413    7.13470502771426   -3.39884651936261
H          -9.09373946849071    6.95757799869177   -1.64065639923039
H          -8.47440792037617    5.62704862214507   -2.61532881485981
H          -4.35144164962440   10.50194321627600   -1.39462021076112
H          -2.48924400628159   17.33318953452060   -0.70380920555890
H           0.19348251007811   16.02987032619295    0.01133772809741
H          -1.79711809611045   19.40667899882938   -0.01680747600568
H           1.49758473721234   24.53644888016814    0.94190368678930
H           3.06387309352765   26.15760403467437    1.59231759412236
H           4.66091408804996   30.10832667814867    3.63603951071363
H           0.17035408459020   31.07655147139877    1.96587836073883
H          -0.08180169125603   29.49577038994007    1.20050336490515
H           0.63240292121532   30.81586525261983    0.27763076844993
H           8.33230697501579   24.20918857956316   -0.28215043459192
H          12.70721814055466   22.99347880248274    1.51199521352241
H          12.34437850622976   23.50814671021551    3.16826856378869
H          13.10285468070837   24.63555634246007    2.04670211325010
H           9.94291811824011   28.12182889931575    1.82406026338964
H           9.36528970171576   30.61274652467396    2.27365428528861
