70
 SCF done       -152.585365996548          0.000779795529
C          -0.09816501284446   -2.89800638494232   -1.09713409996832
C          -0.53830801845018   -2.61501123310573    0.16025957508781
C          -0.71341073347845   -1.22970313432233    0.34106389388344
C          -0.39338930797012   -0.49682044888347   -0.80798628127874
S           0.11557021155037   -1.49691984801759   -2.09335719544638
C          -0.59888463234376    0.88656066505250   -0.53680731766457
C          -1.04751768399305    1.01808794056515    0.78421302677940
C          -1.13520864657454   -0.30966543073612    1.38100446956384
C          -1.53226336468220   -0.61283694052885    2.65026662986952
C          -1.92027623426073    0.38294366671696    3.57113008608913
N          -2.23580013066218    1.19221794675904    4.31992885215536
C          -1.58138012837076   -1.93972506741800    3.12707699443084
N          -1.62458725256564   -3.01594407590760    3.52001080411071
C          -1.28130263564402    2.34462723510404    1.14979864250909
C          -1.01350131300100    3.21922281921166    0.11372919915096
S          -0.46297253361358    2.38860099597582   -1.33443443274277
C          -1.14081710832771    4.63223345291538    0.11534539796162
C          -0.88565810497200    5.50091062469446   -0.92984911973732
C          -1.12848182395711    6.82779037440960   -0.57588147843357
C          -1.56903660627713    6.96826169331238    0.74986474320144
S          -1.68541332446243    5.46803878032239    1.56112712874910
C          -1.79414806022342    8.34393885416564    1.00695464219993
C          -1.49889839607231    9.07505712273473   -0.15858793725554
C          -1.06226786738933    8.14723434910073   -1.18915305810131
C          -0.66081103202580    8.44063735484864   -2.45812432569302
C          -0.61103861213170    9.76015723435407   -2.95824328877496
N          -0.55336562787219   10.82430760708292   -3.37988829842779
C          -0.25247164488935    7.43552618680010   -3.36092923509478
N           0.07915418766869    6.61863615299095   -4.09407575023890
C          -1.70667240733176   10.44548950421207   -0.00731546480090
C          -2.14932239496179   10.76507685758322    1.26299323182793
S          -2.31260062175933    9.34175391132164    2.28638824446513
C          -2.46926514922326   12.06066728383964    1.76946345286825
C          -2.83673490001278   12.30096508498601    3.08316636966709
C          -3.17026178981241   13.56950572915926    3.57050542254212
C          -3.19557648586047   14.69796579929856    2.77506485917761
C          -2.79267587283048   14.50916482547241    1.42815430415003
C          -2.42403638003215   13.20966229173928    0.92950717868341
N          -2.06151298673858   13.36975247242402   -0.32804699932604
O          -2.18418638109953   14.66382283819202   -0.59191587750984
N          -2.61730401356282   15.36849510034500    0.44313775750252
C          -3.56297556977737   15.99805010550601    3.27125619625372
C          -4.22693786000067   17.01742806873953    2.60270511074010
N          -4.86079694302080   16.79654341097946    1.34033781436535
O          -5.29979556950873   15.68191156238896    1.13615481084404
O          -4.95932321413149   17.72768046857482    0.57502812030654
C          -4.35180029183118   18.21494882441844    3.34886773381135
C          -5.02930346683629   19.45361047111231    2.89774728871006
C          -3.78016381389546   18.07605532554524    4.60256451251280
S          -3.08884958797471   16.50021461584652    4.84925289000133
C          -3.70661978266417   19.04799952581987    5.65204612299373
N          -4.20646934635912   20.25684146118033    5.46706826502817
N          -4.16978324694605   21.18726643137576    6.38838896877005
C          -3.62932264565234   21.00504273306318    7.56046862773824
C          -3.05123650028604   19.76159164521120    7.89589520118063
C          -3.09443579935507   18.73505129086531    6.90025224745595
N          -2.53115928008364   17.60409747341467    7.31191480319553
S          -1.99649603324594   17.82171129028819    8.81629428866234
N          -2.45214622771855   19.34647407115508    9.01217851403835
H           0.11973864604087   -3.86039451271885   -1.51501914077838
H          -0.72539807286048   -3.36187807523654    0.90988383911839
H          -1.62901295044205    2.67165444417024    2.11332654988138
H          -0.54432846926070    5.16756719402526   -1.89337338383891
H          -1.55443174162518   11.19384670631681   -0.76377394373317
H          -2.87575642547751   11.46719759587435    3.76923101262072
H          -3.45021427520986   13.66477930449702    4.60919437894843
H          -5.49139777960679   19.31906084491048    1.92437054043074
H          -4.30128007773075   20.26065256875923    2.83243737293683
H          -5.76673548587676   19.76537918944118    3.63459639375748
H          -3.64707736756822   21.83614577264265    8.24774011791902
