106
 SCF done       -222.077378095009          0.000964339364
C          -2.39918495427910    3.44707524551730    3.05771362530394
C          -2.48097301108371    4.46897694470299    2.15397866823008
F          -2.37120516512502    5.73961572509041    2.56277370367077
C          -2.68179610918813    4.20186825634615    0.78460338152597
F          -2.75800727688063    5.22374705069036   -0.07826846354064
C          -2.79980972728789    2.91558292866857    0.33802610348331
C          -2.72282533165294    1.84101738781818    1.24511685862034
C          -2.51631474032230    2.10927980966047    2.62963799212256
C          -2.43105411693080    1.04660628508583    3.55813181965115
C          -2.55311020259865   -0.24415965940063    3.11493296092924
C          -2.77255521680024   -0.50081907243741    1.73400955505362
C          -2.85321576888742    0.50286250710434    0.81255731728838
C          -2.90133726132299   -1.95405056349743    1.51246406607056
O          -3.10539848379933   -2.49349508209388    0.44636832634893
C          -2.79871639370712   -2.57146993941519    2.85702464510455
C          -2.50516399996905   -1.52208267178804    3.81768146434329
C          -2.15299570893077   -1.68995576901042    5.13176246362528
C          -1.99513789929431   -2.93147548164640    5.78387053621152
N          -1.82540246022679   -3.90177907617404    6.37419429098018
C          -1.85307970743944   -0.62507558224684    6.00765512807020
N          -1.60458708592773    0.19738672790734    6.76868443256288
C          -3.09724340333618   -3.86190313750053    3.20377943490902
C          -3.31545788095769   -4.99438260556274    2.39679098343032
C          -3.04871479208755   -5.25480096533021    1.05722591028726
C          -3.39410600207706   -6.54910675757652    0.69710652807956
C          -3.93924574607633   -7.29708958469039    1.76755102444347
S          -3.99461460420601   -6.41130377640637    3.21489708204164
C          -4.27518360826458   -8.58348100018825    1.29072897284308
C          -3.94291601291353   -8.66103460401482   -0.07504496246859
C          -3.36490838860022   -7.38940922934488   -0.48809474191659
C          -2.87340763442262   -7.07728092763490   -1.72070531096879
C          -2.90662618487020   -8.00145360814521   -2.78710682626148
N          -2.93883093502603   -8.75611199532930   -3.64977651210921
C          -2.27329787911908   -5.83410503910869   -2.01914127154825
N          -1.76197027263615   -4.84404897243337   -2.28637834705713
C          -4.22962012995420   -9.90401700145797   -0.63215652707491
C          -4.77558592993274  -10.77377557739417    0.29852743613436
S          -4.94184432495375  -10.04008902917342    1.88614576228475
C          -5.15705039096158  -12.12220058258289    0.10429541326092
C          -5.65378468587241  -12.99348188664755    1.05889061816221
C          -5.87939470678933  -14.26373102097984    0.53906305953329
C          -5.55800126853252  -14.36383486041906   -0.83269375740153
S          -4.98237074164168  -12.88514686864709   -1.47182988621511
C          -5.78196880722565  -15.69050644783031   -1.25423503295855
C          -6.23819310878821  -16.43894087362084   -0.14467430225074
C          -6.32950030462955  -15.55847154552163    1.01138562393222
C          -6.74775429569382  -15.88974875967630    2.26666962429482
C          -7.16183249892702  -17.19899574956991    2.59386801490436
N          -7.49968444056604  -18.26371282987591    2.85078399894644
C          -6.80097100777670  -14.93901101877979    3.30818432467675
N          -6.84782216198098  -14.15804260856858    4.14601386198642
C          -6.44823984899978  -17.77459177874855   -0.42941353795838
C          -6.16179009687084  -18.08641590866478   -1.76036930334095
S          -5.64805576291287  -16.65261690131502   -2.65995777856882
C          -6.20594299254161  -19.32312030198315   -2.41510983084445
C          -6.35724469100989  -20.56219060678188   -1.83110641965234
C          -6.39867509069949  -21.80204677145559   -2.51422465378495
C          -6.47995003390805  -22.89324889552049   -1.69834898472968
C          -6.49896256303457  -22.57174517094375   -0.32532835035426
S          -6.44121986279731  -20.84560090693125   -0.10363960038045
C          -6.52636352992139  -23.41293594084328    0.77823073230707
C          -6.56791464491333  -24.82016237539441    0.82281226195352
C          -6.54082984679208  -25.32569465326010    2.09246097345234
C          -6.47095340515755  -24.34113495837448    3.10231993920955
S          -6.47075603150344  -22.74836243396011    2.39313521393046
C          -6.39972154889021  -24.55031118720230    4.47051168687848
C          -6.28629508733805  -23.50565883605692    5.37669370169441
C          -6.18746777467817  -23.54036084690749    6.75360460261392
C          -5.66739869445291  -22.33889427976377    7.44474597075730
O          -5.47011600748877  -21.24620026893325    6.96340416804043
C          -5.39316932306254  -22.77297109717220    8.83671776451298
C          -5.78794250108876  -24.11445615231199    8.98248336019257
C          -5.55849999090441  -24.77223926452005   10.17870096200408
C          -4.96651466690129  -24.07828740652837   11.23341184139849
C          -4.59853519935511  -22.73181442171463   11.08272255895815
C          -4.81130924187101  -22.07078859091108    9.86800873422210
C          -4.02739091379186  -21.99127627363622   12.14863325957303
N          -3.59181623000855  -21.29556209070828   12.94733447814986
C          -4.64759496969464  -24.76005022498390   12.53155233363994
O          -3.71378907991516  -24.43652387206756   13.20878739080185
O          -5.45881254942249  -25.76078861110324   12.89557759369005
C          -6.41189227522525  -24.56473442670259    7.73162400465845
C          -7.23550572359814  -25.66419968617014    7.63970410283405
C          -8.03590705401023  -25.98902918468725    6.52779547471937
N          -8.73875741557186  -26.29332281717968    5.67210119690426
C          -7.47264850501184  -26.53381127280570    8.72122567696843
N          -7.68755195196811  -27.25490598794353    9.58946995226337
H          -2.24311435322390    3.66924393552393    4.10182197498580
H          -2.95360513808391    2.72687810546780   -0.71288270161847
H          -2.27872310805877    1.28296924562973    4.59872333635713
H          -3.01529150146780    0.27680595178376   -0.23034629164258
H          -3.21282710917691   -4.06118220916260    4.26319356904455
H          -2.63016784759636   -4.51897528813624    0.39565042815097
H          -4.05447293807947  -10.18343975886183   -1.65558784554121
H          -5.82635706910895  -12.70190360892569    2.07944131933813
H          -6.81455020349266  -18.48960607913623    0.28156560174941
H          -6.06848466405751  -19.30944466668159   -3.48861689043088
H          -6.36285789503698  -21.85018854286724   -3.58824959743678
H          -6.51337840560537  -23.90928234533527   -2.04757124270521
H          -6.61289345982075  -25.42042110520358   -0.06806390705042
H          -6.56924271150103  -26.37354068130036    2.33203756712506
H          -6.40011297404810  -25.57582119505713    4.80702000298647
H          -6.16745889822367  -22.50833700893927    4.96005116823673
H          -5.78867904038394  -25.82200036242493   10.28170805469056
H          -4.52320564856292  -21.03834644500817    9.74122076471564
H          -6.19319915911321  -25.92075064415418   12.28620414031868
