91
 SCF done       -187.320535794536          0.000967775209
C          -6.22920038582115    2.83249676938364    8.26911596405353
C          -5.45187105245823    3.95006691389280    8.27621138368689
C          -5.08742945699318    4.32792773097506    6.96898920480779
C          -5.60971247923859    3.46890519129716    5.99933986573560
S          -6.53717462927014    2.21126242553476    6.68077402592341
C          -5.18745760703327    3.92705723204163    4.71101244845805
C          -4.40474841888179    5.06945435346195    4.88570845094509
C          -4.31037011967360    5.36297819969675    6.30676353649508
C          -3.62740873290145    6.38960227205750    6.89299982641683
C          -2.89477535449313    7.33351937812996    6.14739167074952
N          -2.29023723445214    8.11119646745678    5.55873541777185
C          -3.60194269234059    6.57464829478039    8.29136898991412
N          -3.58536443019875    6.73628761391649    9.42660334605643
C          -3.93689228765510    5.59661481545959    3.66949235736143
C          -4.36425321411410    4.85883468227936    2.60249160514607
S          -5.34922311322772    3.50098911891511    3.06779922786082
C          -4.04457807872040    5.09872053263812    1.15687477458459
C          -2.56829071746831    4.97667747210134    0.93530681500325
N          -1.90641918370580    3.87479507900477    1.21953399837686
S          -0.33497221545895    4.09591980802140    0.88715375686875
N          -0.46768160279912    5.62224503767836    0.36514627958604
C          -1.72612208085840    6.00082530184906    0.43405052160034
C          -2.17038749211570    7.37376157469767    0.03721226280715
C          -3.64953157950405    7.48331949950216    0.22302880670889
C          -4.49281017300422    6.46287056997281    0.73306448047257
N          -5.75169371595356    6.83991821475714    0.80422746581212
S          -5.88372689318244    8.36589367464662    0.27358076792866
N          -4.31491607766632    8.58064305831485   -0.06931771826358
C          -1.43540724095057    8.41261850212140    0.85046568131610
C          -0.54494065630065    9.26627017759011    0.29727210855952
C           0.19374504984525   10.21462756726151    1.03018906303977
C           0.04781792525148   10.33278753647559    2.48338688571140
C          -0.79203502236181    9.57849492406863    3.22565311075943
S          -1.80364013238968    8.36836738562420    2.55967848736779
C           0.96433534372536   11.35223284524114    2.86674618067935
C           1.64367429736185   11.82773113875468    1.74417666625950
C           2.55287794039326   12.85585740616210    2.07742870452441
C           2.54636763326562   13.11920081848383    3.41112721897537
S           1.44208236440286   12.14291717498630    4.31627391746026
C           1.16498666932634   11.11479622360441    0.58449475473506
C           1.56585032397944   11.23728899059540   -0.77193586040988
C           2.67570839924402   11.84276073296539   -1.24487486981844
C           2.98984473071450   11.83943753502543   -2.64984764448281
C           4.25373476065763   11.78866939974595   -3.16295535641515
F           5.38869909969630   11.83541793486418   -2.46379520630166
S           4.33565803919872   11.58172017377770   -4.88459455409190
C           2.61031611414715   11.56928965086886   -4.92069965004102
F           1.99176839221914   11.49560084650139   -6.10010856934316
C           2.00681813477999   11.75366748306364   -3.70506123416418
C           0.60593785686346   12.00786513554520   -3.51105200656491
C          -0.39996570501267   11.51768153169711   -4.27094132212781
C          -1.73674484764007   11.97416740656683   -4.14859575114043
C          -2.82909056714289   11.44339461126948   -4.76637998697853
C          -4.03918340650010   12.26615746493861   -5.03415188556919
O          -4.33081148249449   13.32261788018533   -4.52384641073187
C          -4.75899721673547   11.54287424307141   -6.10437834001314
C          -5.85332068603163   11.93296818701383   -6.82006593711346
C          -6.35278885796390   11.08461941827345   -7.83459993746230
C          -5.70580960854700    9.83975229857662   -8.08789683400181
C          -6.20549920075999    9.00394440557110   -9.10517239872519
C          -7.29696076208115    9.40246288689349   -9.82575738157519
C          -7.94659408043251   10.62211653013497   -9.59270268100809
C          -7.47499453124145   11.44524238314667   -8.60800229805555
F          -7.77549799742858    8.60515411346757  -10.79779733196555
C          -4.57776618864586    9.45629553001703   -7.32527194355157
C          -4.11366998036458   10.29538311386921   -6.34948494779720
C          -3.00119914303797   10.16629628160410   -5.41574749054965
C          -2.39129684948487    8.99588063330639   -5.03973735064055
C          -1.55474516912806    8.90138584425494   -3.91213081650730
N          -0.92875214390965    8.76265215318211   -2.95873584721274
C          -2.64715528784825    7.74803496202837   -5.64181304934693
N          -2.81474382475985    6.71100106073609   -6.10448112372210
H          -6.65145295267490    2.31985194991768    9.10989513509466
H          -5.16033655376786    4.46932581314205    9.17073724358088
H          -3.31925424300041    6.47058888629359    3.57693242407095
H          -4.56816949057039    4.34179186118884    0.55969792733018
H          -1.91668821482579    7.55021360757187   -1.01624591021166
H          -0.39327077286047    9.20054174827130   -0.77022001680118
H          -0.89122849967225    9.66687022975193    4.29545498279017
H           3.17642804654415   13.38646313209750    1.38151061941248
H           3.13445027863795   13.84486633187043    3.93836518296451
H           0.92481228178985   10.73249126523253   -1.48402457481463
H           3.42348889813612   12.24469391713953   -0.57920304737388
H           0.37084183864965   12.66894233443322   -2.68632522158418
H          -0.18394207471114   10.78277419225381   -5.03457450169488
H          -1.89702250404840   12.90525491725376   -3.61628662721375
H          -6.33226608743511   12.87947502780611   -6.61880874067653
H          -5.73140461007844    8.05693976431052   -9.31086449383650
H          -8.80224352973733   10.88455471380255  -10.19437245660070
H          -7.95869055911976   12.39000584659187   -8.41045362038173
H          -4.09816271748823    8.51430065585032   -7.54162059873036
