142
 SCF done       -269.118571535117          0.000831598720
C          -7.82787874683955   -3.13575263389812  -11.21954702746645
C          -9.12539743510224   -3.16983173928123  -11.64645504395995
F          -9.56463548735745   -2.27309986874603  -12.53931027030609
C         -10.01701191820439   -4.14508726544496  -11.15551845788373
F         -11.28370872659059   -4.15431657373945  -11.59230108974280
C          -9.59855337038829   -5.07244489811430  -10.24315173042188
C          -8.26762219128427   -5.06257741308078   -9.78217692624264
C          -7.36423157452790   -4.07883728355912  -10.27978149269031
C          -6.02316418770479   -4.05203165908590   -9.83535666426450
C          -5.59803855736490   -4.98131307713269   -8.92148027144015
C          -6.50874905913889   -5.95253216057834   -8.42360446728909
C          -7.80978847484215   -6.00373023539554   -8.83399071152315
C          -5.82656388503489   -6.82316968530437   -7.44351839891121
O          -6.33848516204498   -7.72562393852286   -6.82129975943229
C          -4.43917793553399   -6.29202514318052   -7.34019386122333
C          -4.30009545795050   -5.20046392948804   -8.29407890715102
C          -3.14424812334282   -4.53881204144764   -8.61305869241971
C          -1.87019418655051   -4.79866797225583   -8.06331033956331
N          -0.79781217297425   -4.95194358114954   -7.68234021700438
C          -3.06601262746631   -3.50528629457130   -9.57106496385377
N          -2.93925926924704   -2.65471858823445  -10.33127802490675
C          -3.51835591246567   -6.60557298633484   -6.38906336955122
C          -3.50326868685446   -7.69692462493654   -5.45541441007702
C          -4.04876594114810   -8.95750586895250   -5.73361190702958
C          -3.97005359867678  -10.00000426817961   -4.83010190129956
C          -3.33790040834376   -9.80276529317320   -3.60678646683369
C          -2.79739649361651   -8.52215507528488   -3.32680865201668
C          -2.84319578498831   -7.49021578722707   -4.22913025480132
N          -2.26747902336106   -8.51675445277139   -2.05440813948557
C          -1.60235365946722   -7.40538279010839   -1.43179059997316
C          -2.47072619159128   -9.72151079071372   -1.43342518437836
O          -2.07621705980948   -9.96477234124869   -0.31219444652735
C          -3.15379368948658  -10.61610919011971   -2.42712780939021
C          -3.43489710644522  -11.93911054990477   -2.20980397794886
C          -3.64893047871203  -12.95698454834593   -3.29535237174547
O          -3.64627943693903  -12.82040683429887   -4.49970151954279
N          -3.77622247777560  -14.17595097779639   -2.67948705540748
C          -3.96946770120254  -15.40819984048298   -3.39292353807253
C          -3.71294800792127  -14.04419258336839   -1.30947458628220
C          -3.49639374121329  -12.68510777075692   -0.97713904517854
C          -3.47970181859047  -12.33412445350384    0.36912185539948
C          -3.62841718437063  -13.31413800622841    1.32973806886149
C          -3.79869401981679  -14.66381307237882    0.99416697188175
C          -3.84805123478376  -15.02723729678907   -0.35918667578271
C          -3.89921860566796  -15.67776084989661    2.02884962364372
C          -4.39604168828006  -15.43165704660056    3.27877692258849
C          -4.47059235453757  -16.36891742348534    4.31504179760838
C          -3.96280273778636  -17.73314153986566    4.13813692222539
C          -3.45102972136246  -18.20495805446982    2.98083070406490
S          -3.30378877881014  -17.26419372134547    1.55624696318270
C          -4.15086626225235  -18.36746634719742    5.39490616628461
C          -4.73534629171312  -17.47527293782500    6.29752427246455
C          -4.97037975965351  -18.08680000180427    7.55066402171394
C          -4.55826011451830  -19.38124336881144    7.56642565283376
S          -3.87655929682185  -19.92254516186294    6.07148345247894
C          -4.94556725339896  -16.21481413396231    5.62806175904799
C          -5.54076075474534  -15.03469472559525    6.14763693098359
C          -5.76779837327598  -14.77626602131193    7.45634189415872
C          -6.41137788389478  -13.60620204628879    7.98730790785628
C          -6.31120711436908  -13.34194427514458    9.36337730011913
C          -6.89414786692671  -12.24020179528864    9.95108330254949
C          -7.62724582957190  -11.35617490303678    9.16174576117109
C          -7.76797560965423  -11.65118193308864    7.78297379144769
C          -7.17086156687356  -12.73341016985343    7.18815877635551
N          -8.60538234802015  -10.71867938421355    7.20264067348936
C          -8.97866444768042  -10.67831330102851    5.81605333712711
C          -9.08479081158323   -9.84075668725706    8.13894992364035
O          -9.84564149708217   -8.93481705169256    7.87169213467844
C          -8.43073537265503  -10.19722138506096    9.44507149424802
C          -8.55167229961122   -9.46661395859104   10.59871103612612
C          -7.56324618361231   -9.49213045416163   11.72435450821029
O          -6.54753372222481  -10.14280203105571   11.85478731531016
N          -7.96640146133900   -8.54174237953304   12.62960712500132
C          -7.23767229919581   -8.22819509876671   13.82741714615061
C          -9.14062261573878   -7.94650298377922   12.22900432765299
C          -9.52972074932880   -8.47364567775183   10.97296828884573
C         -10.74013632575597   -8.06054310228445   10.42615510328560
C         -11.48298595995600   -7.10019960858879   11.08095027617004
C         -11.06891308793697   -6.54798453170541   12.30192135229316
C          -9.89239761363202   -7.01529171610779   12.90456413721734
C         -11.86716657261200   -5.56442600127742   12.98385094547439
C         -12.66970502946432   -4.61728352886585   12.44147935239283
C         -13.72719702767785   -3.97085397796372   13.26684935305165
O         -13.83184236807353   -4.00583614980543   14.47063246843133
C         -14.64262463053333   -3.33935392406181   12.29345442509222
C         -15.84234595137112   -2.72784255006224   12.51796244536067
C         -16.57069141114187   -2.21984594223208   11.41925838544990
C         -16.04108187606491   -2.36032074248238   10.10334008955908
C         -16.77799240572400   -1.85850441123109    9.01149955529530
C         -17.98110893748271   -1.24403993311031    9.21649108282662
C         -18.50286624558384   -1.10414112004328   10.51831069310912
C         -17.81351515077179   -1.58110491109426   11.59746437811276
F         -19.68601221412295   -0.49819924030351   10.68919664927163
F         -18.67971746971246   -0.76734018015091    8.17738489995011
C         -14.79231364631137   -2.99100198339007    9.90175905152021
C         -14.09983886102353   -3.46821336370182   10.98262508455795
C         -12.79858590326095   -4.12292622753587   11.08237143316706
C         -11.79762190297767   -4.05266210359234   10.15217459753640
C         -10.46966554253775   -4.45698045065647   10.40928818843472
N          -9.36288063264524   -4.69479016207133   10.59547790067246
C         -11.95829014858992   -3.47287747572386    8.87715155874617
N         -12.05354004565306   -3.01355639149563    7.82961411516351
H          -7.15803805366923   -2.38381987325230  -11.60656448760180
H         -10.29313633560273   -5.81189559507894   -9.87648012563993
H          -5.36683227472264   -3.29142826195387  -10.22588122551211
H          -8.47889503137598   -6.75341864922935   -8.43972862455572
H          -2.68290025793953   -5.92327515885836   -6.27623374265801
H          -4.51396518863013   -9.13241464779103   -6.68821794217004
H          -4.38099510078333  -10.95980091931156   -5.08808508317807
H          -2.41373188053265   -6.52681950560293   -4.00057587495374
H          -0.72872260336437   -7.10802050610660   -2.01458129808089
H          -1.28437505214986   -7.72914820727211   -0.44137728319229
H          -2.28002652688266   -6.55439266451060   -1.33590773437001
H          -3.95579191546254  -15.17410637749968   -4.45682425428854
H          -4.92964772685847  -15.85833199250297   -3.13191356659497
H          -3.16674146978735  -16.11195308121892   -3.16527404957154
H          -3.32219654590578  -11.31355826042636    0.66948506148850
H          -3.56829324477630  -13.03076593556644    2.36863229214758
H          -4.00992286958931  -16.05572136565942   -0.64255152342954
H          -4.77126224984750  -14.43625798786164    3.46977087169386
H          -3.09510676182847  -19.21714161098000    2.87069496038909
H          -5.42995219679931  -17.61743616106695    8.40067578607319
H          -4.61288103783120  -20.07622235304739    8.38152818968682
H          -5.80616366857774  -14.28706324972604    5.41206065884511
H          -5.40809370919533  -15.47877022857620    8.19354373364896
H          -5.74285754147373  -14.02401227508744    9.97850363469671
H          -6.77401535609339  -12.06404603947726   11.00530138046858
H          -7.31071179091825  -12.92885446264595    6.13714036391791
H          -8.09635411100126  -10.55045475068780    5.18584983451424
H          -9.64437394531158   -9.82618166439001    5.68274215722735
H          -9.49912870700576  -11.59476758696966    5.52847744107139
H          -6.33601727987356   -8.83982333308368   13.82900655008129
H          -7.83311310392798   -8.45643768582273   14.71417384204413
H          -6.96156110151903   -7.17237641266093   13.83825144371656
H         -11.08814049564554   -8.46303375194468    9.49117956858257
H         -12.42943018318501   -6.79131796114615   10.66184828281756
H          -9.57512971552812   -6.61534398657377   13.85469003374243
H         -11.88433051641012   -5.62175385022003   14.06800024911667
H         -16.23161996709558   -2.63440779828350   13.52036429495049
H         -16.39135747970208   -1.95405371570802    8.00891103627075
H         -18.22626714095401   -1.46653426954225   12.58753083068454
H         -14.41654305999425   -3.09132619621015    8.89585805412602
