92
 SCF done       -201.918678103067          0.000643534410
C          -5.13485082113175    4.63584359174245   -7.24739876563591
C          -4.24703859416631    3.64585663120482   -6.95304680058594
C          -3.37276828599586    4.03342677514992   -5.91964110329351
C          -3.63366776584503    5.32795039016507   -5.45704376673884
S          -4.93650827824423    6.05999947925453   -6.28200137603513
C          -2.70841120597358    5.63553757239000   -4.41836966353821
C          -1.86802599856810    4.52927014471162   -4.23141212019654
C          -2.26035147696989    3.48174805032347   -5.16639241290615
C          -1.70533362310090    2.24332727760237   -5.29798589419195
C          -0.63481947361974    1.79997630017263   -4.49194138937126
N           0.22715700069171    1.41971774570866   -3.83887910193361
C          -2.17438859289176    1.30876399898927   -6.24569200518024
N          -2.55245364494024    0.54464660343182   -7.01239685628834
C          -0.91880966595955    4.72623670634447   -3.22691153743478
C          -1.03244880766713    5.98006458078455   -2.65950405886765
S          -2.34364429890305    6.91854082586305   -3.35776769092341
C          -0.32059046454171    6.56670376010334   -1.57361469395618
O          -0.94172995583045    7.54427460198160   -0.89511133027797
C          -0.16426125483185    7.90481291388976    0.15393773358704
C           1.01080045076119    7.14637337903178    0.14512421054991
C           0.92190220832491    6.30279342203056   -0.99539667433275
C           1.96379009665293    5.42569498487117   -1.59270428239796
F           1.82181740695625    5.29929291268829   -2.92154435171982
F           3.20810908290953    5.89831830054083   -1.41730870151659
F           1.96523512884981    4.17305044275722   -1.09187388702046
O           1.92570536003040    7.30131466789597    1.10796392849741
C           2.88000180549495    6.28524430747524    1.37056352281207
C          -0.55788206855803    8.90548902763738    1.07501955817312
C          -1.68258617813520    9.65106497975532    0.94592819317161
C          -2.10299100339826   10.64018533253758    1.87163295246921
C          -1.57888396699705   10.95410408963857    3.11579653961172
C          -2.27212681270260   11.99348913631289    3.73169631167627
C          -3.33131074438906   12.48883373678125    2.95115495748579
S          -3.47941103927287   11.65669550935435    1.46729340484062
C          -3.95651229115537   13.54671426569198    3.65685256604017
C          -3.30366746860333   13.71005501235641    4.89195040141601
C          -2.22718485347174   12.73821409642409    4.98271600579559
C          -1.35779909373815   12.55431608590502    6.01676404189962
C          -1.41058610502220   13.31816206666042    7.20258154980693
N          -1.44315723233037   13.92098380916413    8.17687124374572
C          -0.34471705739685   11.57301076320729    5.97660587651317
N           0.47629517122627   10.77292819197243    5.94505981054110
C          -3.84389946924978   14.73683033393510    5.66636404717965
C          -4.88890259102488   15.36848601792793    5.01989938573194
S          -5.23245935698177   14.65896925069516    3.44563430927480
C          -5.73247282293224   16.43443515737618    5.43754021254294
O          -6.88354652663999   16.59758776269759    4.76409316664468
C          -7.58550711468486   17.60184394142535    5.34105069044507
C          -6.86192331327494   18.11379356459910    6.42269826506585
C          -5.64624030670309   17.37997484461192    6.46223385364164
C          -4.43178420669635   17.62154381751741    7.28490310437919
F          -3.30225182387083   17.35292834646587    6.60776898241113
F          -4.30531684416311   18.89551615439171    7.68232674745432
F          -4.38659933324361   16.87250718780806    8.40687228266068
O          -7.36767323422461   19.09660768225519    7.17788874235621
C          -6.95441024558805   19.25304617675096    8.52654440164278
C          -8.84011894876298   18.02933621414818    4.84237620436476
C          -9.42993728599679   17.50734953533882    3.73959718424277
C         -10.67363278811635   17.93551360234204    3.20790604898879
C         -11.54671511545367   18.90252708940182    3.67885282077425
C         -12.66300171343855   19.04792914987448    2.85639637351640
C         -12.64572733829681   18.18895933215963    1.74812138488011
S         -11.25804240230062   17.19760935028385    1.72267181257631
C         -13.81703727248772   18.42779870921725    0.97502838920764
C         -14.56752295425652   19.43322778511655    1.59680443417773
C         -13.87669812548496   19.85648689967008    2.79926586286334
C         -14.27271533663155   20.80627230317921    3.69535516315029
C         -15.47249877325917   21.53182435095300    3.54144390189763
N         -16.44702510196278   22.12453594157340    3.42234319737352
C         -13.51120231005432   21.12387136396833    4.83908102465920
N         -12.89544288819098   21.38531956946619    5.77069243669307
C         -15.74807823559394   19.73726622369256    0.89107836192105
C         -15.86696337392240   18.97297977019781   -0.22878450791540
S         -14.55344584219441   17.86397108013168   -0.45777659898115
H          -5.91156243680993    4.62225401721871   -7.98554212114058
H          -4.22603623529214    2.69494057843573   -7.45296922426547
H          -0.20497681921283    3.98843031395667   -2.91274181610494
H           3.12623725042885    6.38424872454151    2.42726476722765
H           3.78400932142273    6.43402403688706    0.77715378393085
H           2.47350103050104    5.28933875336753    1.18567633182505
H           0.12017340789235    9.04167042829830    1.90282257085297
H          -2.30865418138459    9.50388968755786    0.07658984961591
H          -0.74060489280046   10.43852393162226    3.54540622108295
H          -3.50406499877181   14.99087433395801    6.65214960270957
H          -7.83097262158134   19.61642003401095    9.06280421769584
H          -6.15481172909691   19.99170479264523    8.60518183141479
H          -6.62929681501505   18.30720054029059    8.96358660369367
H          -9.29673624084136   18.82705373129866    5.40671504638307
H          -8.92301204837736   16.71645050364866    3.20376060641761
H         -11.36959670646172   19.46657840163050    4.57536443718779
H         -16.46904862695079   20.47645768696950    1.18878882660277
H         -16.65631924945211   18.98586452428036   -0.95325756543655
