87
 SCF done       -171.480333405834          0.000740780117
C          -1.01993108104274   -2.12456040932762   -4.40867779503731
C          -1.51478131610087   -1.15462954247618   -5.22536909959341
C          -1.51654255113833    0.10112024569769   -4.58726023450739
C          -1.01265826677263    0.03805152949941   -3.28257512768586
S          -0.54308681214870   -1.54317881356312   -2.84591079408023
C          -1.05183227338003    1.34403752020749   -2.71568799082835
C          -1.58125481417446    2.22448869877329   -3.66726941399593
C          -1.89089803523494    1.47149258035383   -4.87785955304504
C          -2.42102868186826    1.96234966056856   -6.03551043238245
C          -2.74442503935473    3.32582877448644   -6.19433787032474
N          -3.01333300105820    4.43271255475815   -6.32795649157292
C          -2.68095225355733    1.14042500829409   -7.15168887166649
N          -2.89449563314987    0.47792907870635   -8.06307092011479
C          -1.66383192171981    3.53971839638200   -3.20673211067066
C          -1.19946707585981    3.66215834565251   -1.91072863069111
S          -0.65195499157009    2.12791580684714   -1.25155683493008
C          -1.13777856088117    4.83754500568955   -1.11902571615096
C          -0.67788193721018    4.95990211436928    0.17765966275982
C          -0.77497838602833    6.27086472218318    0.64622486467351
C          -1.31600553303868    7.15285164457675   -0.30519872459001
S          -1.70053704939990    6.37060129728357   -1.77469674488852
C          -1.38418874651529    8.44767210070179    0.26535863564303
C          -0.89414052473971    8.38311562620587    1.57946492249236
C          -0.50505004541726    7.01096635693483    1.86738239813950
C          -0.02080643968612    6.52215763176228    3.04444513643956
C           0.11114936872740    7.32017026982090    4.20158701235981
N           0.17497976217168    7.94492799166783    5.16057975427066
C           0.33652880231171    5.16606129242616    3.19757097551348
N           0.62411067227273    4.06315235366640    3.32401688133701
C          -0.91192863162568    9.61251305574905    2.23326786850007
C          -1.40813531885808   10.62052055888722    1.42510405117922
S          -1.88062446175578   10.02637824763581   -0.16286270227907
C          -1.60024922998873   11.98282338033831    1.78548624947762
S          -2.96631001961769   12.86763386904545    1.18903572200795
C          -2.71216996194698   14.20038330476251    2.27868291342806
C          -1.58335718658850   13.95538990425710    3.08033126017115
C          -0.90682779481607   12.73500285133839    2.73769082960075
C           0.34560675512906   12.41957137894459    3.33775113430714
C           1.29556721102821   11.40570054615157    2.80499712455979
O           2.00363224368344   10.72328425161559    3.49017400663824
O           1.40011894030823   11.36084210237336    1.45685488919298
C           0.78037685054317   13.18163797864096    4.39383130687278
C           0.05339263985570   14.29219364326692    4.83192528283124
C          -1.08372953846485   14.70478639742370    4.17855100841121
O          -1.75780643199572   15.80567358494597    4.57982210156785
C          -3.62353753064309   15.28035818954181    2.15620264073911
C          -4.68656625197605   15.29265551007941    1.26516775569611
C          -5.40313917323143   16.48246870304189    1.29078386407095
C          -4.90050503872478   17.41336444324154    2.20811049945801
S          -3.52447052940533   16.79569003462518    3.04299542871692
C          -5.65627463537585   18.59008305566345    2.21345183981571
C          -6.72387236814692   18.55202646802599    1.29964106722115
S          -6.80459808942450   17.05410525688768    0.41484023192580
C          -7.41637994537523   19.75853365645906    1.41017607299141
C          -6.74639392486011   20.50475053243134    2.37061094665738
N          -5.68512255549881   19.78588900879118    2.86132864620611
C          -4.79724289314435   20.15061005915625    3.92737676377949
C          -7.12898493973942   21.81711677366128    2.85819787966779
C          -8.46119409503067   22.06838496481524    3.26781233213546
C          -8.65468656385981   23.33109960903506    3.74551537246927
S         -10.16494182089079   23.95845623595145    4.35627818496068
C          -9.70824714614928   25.67648020917422    4.71982012186407
S          -7.18855941757663   24.25597091625018    3.70048962619400
C          -6.30837282194021   22.91887348833793    3.00317135709430
C          -4.95232097642439   23.16666377261949    2.59362238967527
C          -4.26081854846388   22.45299607789709    1.70709823420682
H          -0.89976026324607   -3.16728745908345   -4.62400715682891
H          -1.85748641519545   -1.33511351959550   -6.22776808066774
H          -2.03960379187572    4.37395411135893   -3.77154639037310
H          -0.29432796892922    4.12777656178444    0.74047746974776
H          -0.61196589826060    9.76968584464320    3.25296916509120
H           0.80738741882105   11.98764010574358    1.02086724271951
H           1.71493589222768   12.92752788810536    4.86850092897596
H           0.41159997320452   14.86099031688081    5.67840466698216
H          -1.31362970483237   16.21690916501942    5.33257534337986
H          -4.92386390066712   14.46335192166687    0.62340277962544
H          -8.27632220313977   20.07530075019891    0.85643448946047
H          -5.29490314306130   20.84996350534606    4.59804930890759
H          -3.89161415598328   20.62517528102878    3.53862456387125
H          -4.51641904274212   19.25307740983040    4.47877614358208
H          -9.24127732913615   21.33089119297864    3.22588871856923
H         -10.60603669192072   26.15774759918069    5.09378737278464
H          -9.37104501299422   26.16354843264149    3.80940343481711
H          -8.92871635181774   25.69410052968407    5.47618178965992
H          -4.50512174743877   24.05023692628752    3.03266523329971
H          -4.68001293151832   21.59883208923593    1.20438929655543
H          -3.25498116485591   22.72584148385307    1.44030249123395
