111
 SCF done       -228.548903884209          0.000338250712
C          -1.28490813450920   -1.94530428833672    9.76958050788373
C          -1.02005447216268   -2.39564623523392   11.03270844142987
F          -0.66947617753382   -1.53316350783750   11.99538404740195
C          -1.11168874147141   -3.76816058440825   11.33888543079552
F          -0.84594112979252   -4.18187094325511   12.58526018151479
C          -1.46795705989986   -4.67186108440201   10.37728570803433
C          -1.74746496250298   -4.23852609208553    9.06689917697966
C          -1.65414218900607   -2.85128224479723    8.75531752034456
C          -1.92875217003835   -2.39229686473688    7.44596500189038
C          -2.28675214560683   -3.29256803215825    6.47774110541256
C          -2.37989138606808   -4.67510621211848    6.80085586157261
C          -2.11998316436650   -5.14964567715692    8.05381547387046
C          -2.78566893161946   -5.42172709957156    5.59937945041126
O          -2.95591325816435   -6.62796241311873    5.52468708734533
C          -2.94173602838926   -4.43255002155688    4.53096024458649
C          -2.62492349373652   -3.12155888163362    5.06517016732513
C          -2.62638614681005   -1.92423331616174    4.39754268822555
C          -2.94364064091958   -1.73648953466708    3.03569498455638
N          -3.18541517717793   -1.49766742338876    1.93863929854099
C          -2.29859062918743   -0.68828871292339    4.99447863497218
N          -2.04334616342212    0.34746266438374    5.41844453023097
C          -3.33549634262263   -4.70756879760314    3.24324132910558
C          -3.67273132519909   -5.92449871452168    2.63782332907808
C          -4.07747948450244   -5.99379572227064    1.29682090066302
C          -4.37721789558204   -7.28026096183925    0.89819931895564
C          -4.19635767083341   -8.22014286699459    1.94457326375247
S          -3.66596587931879   -7.51725186333720    3.40153676920812
C          -4.53630212970900   -9.49648788735762    1.44459916624975
C          -4.93256620684879   -9.37811175976682    0.09921306015194
C          -4.83984281593217   -7.97927341274838   -0.29047812949413
C          -5.12663900761442   -7.44575560920418   -1.51186940277177
C          -5.56890641374560   -8.24164324854813   -2.58993343287238
N          -5.92742805808459   -8.88973681111434   -3.46514648589548
C          -4.99919602731556   -6.06615574498475   -1.78129296075276
N          -4.89934479384184   -4.94701926160916   -2.00772810658236
C          -5.29956313338884  -10.59439973473473   -0.47049222515119
C          -5.18419224352742  -11.64300242715223    0.42828316171557
S          -4.61037026971060  -11.11148646467566    2.00204771137521
C          -5.47835363608937  -13.00829184441807    0.20445023755276
C          -5.32943913772360  -14.06112119313414    1.09639706343675
C          -5.72470407026846  -15.27171975436411    0.55045033130197
C          -6.18304914367898  -15.14821434075201   -0.76406835845370
S          -6.12163340693134  -13.53403711367213   -1.34016252244573
C          -6.57343540654580  -16.41978210298912   -1.23515343765168
C          -6.36018968054323  -17.36488244355248   -0.22777141309487
C          -5.79669921220914  -16.70851431845617    1.01076475206676
C          -6.74732745248725  -16.86374046600013    2.20139875046701
C          -4.40766138790549  -17.25525653391123    1.35148888152597
C          -6.72438786097715  -18.64725351997366   -0.60502925839378
C          -7.22544745265277  -18.69107052997220   -1.90049705314859
S          -7.23361946520155  -17.11012266619586   -2.65807117052435
C          -7.70817895903823  -19.82624310016694   -2.59534433277110
C          -7.70149181363135  -21.14343911386745   -2.15532455523175
C          -8.27577055912441  -22.00485076701957   -3.08387085440194
C          -8.72844308812954  -21.34467201087836   -4.24100738425361
S          -8.43480365092862  -19.66129984225786   -4.18356836750292
C          -9.31683161884528  -22.29686014877992   -5.10098711772030
C          -9.22493088377370  -23.57113466573368   -4.49889542311924
C          -8.56735262881006  -23.42708721795831   -3.21328554194262
C          -8.28197002662146  -24.40766853452072   -2.30929304987381
C          -8.59816894097087  -25.76322431210910   -2.54169165777177
N          -8.84224593689336  -26.86713695444310   -2.73066264186854
C          -7.64235451652795  -24.12711028332646   -1.08370180508217
N          -7.12142920817368  -23.89339674865064   -0.08919672287887
C          -9.78632743565249  -24.57519263507974   -5.27873733084401
C         -10.35103519018855  -24.08382670861414   -6.44674230007190
S         -10.10985184781696  -22.34052413908782   -6.60418573066744
C         -10.97979768927638  -24.84837621908921   -7.45286436543576
C         -11.82642342206206  -24.43668980353850   -8.43857562323287
C         -11.99290241635933  -25.26552916553150   -9.66324081990561
O         -11.62936687560877  -26.40736758689501   -9.82163239945025
C         -12.63312923722526  -24.36928161394359  -10.64963092897507
C         -12.89906420177637  -24.59436777261829  -11.96929804225818
C         -13.49910664180422  -23.56820638315418  -12.73385456161665
C         -13.80610396291094  -22.32155064986166  -12.11485901893629
C         -14.39601104384084  -21.29990253250494  -12.88574015321990
C         -14.67294010507539  -21.50733318118235  -14.20780305885568
C         -14.37198754448477  -22.74140578272243  -14.81839652480561
C         -13.79728475931681  -23.75096913389731  -14.09822772212329
F         -14.65397647190074  -22.91663612044551  -16.11636763066772
F         -15.23484230764308  -20.53558682723120  -14.93847342225201
C         -13.52710543712629  -22.12003589322389  -10.74371736375540
C         -12.95632196078586  -23.13260351299008  -10.02124939381505
C         -12.60180435055853  -23.22788389802981   -8.60798243652485
C         -13.15630184427518  -22.47398025709425   -7.60554165238699
C         -13.02308174509700  -22.78579149875398   -6.23719450759598
N         -12.96748315483682  -23.03465727741460   -5.11766587088130
C         -13.99291841709054  -21.36321300930746   -7.83252276467279
N         -14.66313652907927  -20.44111568910843   -7.96680353649396
H          -1.20975307275425   -0.89125837115672    9.55227949411923
H          -1.53399638224768   -5.71913254769604   10.62749952998208
H          -1.84856106289730   -1.33640211209071    7.24589447992059
H          -2.19839233055591   -6.20452532512892    8.26878857840244
H          -3.41363115275945   -3.86555203007994    2.56618099921744
H          -4.14037309880532   -5.11879068776733    0.67401225271050
H          -5.63603901125071  -10.73303496965215   -1.48222411019370
H          -4.94726275068117  -13.92021038207670    2.09164045761666
H          -7.73322358920096  -16.47827302231063    1.95185188040764
H          -6.36443339222627  -16.31498246467524    3.05792835189235
H          -6.84051848370793  -17.91285872600589    2.46944503410694
H          -3.73596941496348  -17.13845501635087    0.50413391852773
H          -4.47400729997418  -18.31088400106102    1.60140680135168
H          -3.99429607678821  -16.71846533741520    2.20143120587168
H          -6.64623241218970  -19.51820321065244    0.01864435045413
H          -7.29614127887458  -21.44420662554450   -1.20760913601028
H          -9.82932487207875  -25.61591336435237   -5.01224989112022
H         -10.69314363439819  -25.89514440394459   -7.49335191090627
H         -12.65617175051026  -25.54225808098085  -12.42478763990331
H         -14.63665614720026  -20.35098155727438  -12.43244661877654
H         -13.57307859015617  -24.68939808747840  -14.58069084879072
H         -13.76259855946492  -21.16585406415410  -10.29967017764292
