101
 SCF done       -220.952503856132          0.000612207867
C          -1.16865190652627   -4.47927767368727   11.07503813064304
C          -0.95773718290423   -5.32455597514245   12.12851848408645
F          -0.43863972203348   -4.85710073192273   13.27151575213539
C          -1.27920677314210   -6.69338159436916   12.02807052594295
F          -1.05582496129071   -7.49635947283055   13.07726968107129
C          -1.81258169128478   -7.19884775092583   10.87563775545388
C          -2.04545525146877   -6.35145556180519    9.77543782757696
C          -1.71579399314935   -4.96874297588521    9.87222950223022
C          -1.92981963966029   -4.10601292139874    8.77210853355614
C          -2.45926408049004   -4.61177098688735    7.61452828555873
C          -2.79380681970599   -5.99346977636395    7.53202037125352
C          -2.59759914186383   -6.85138899967561    8.57555040844859
C          -3.33701988685743   -6.27943292019740    6.19558826860690
O          -3.78376061690944   -7.34880048388431    5.81159672533773
C          -3.21740101076387   -5.03145571763220    5.43172036578880
C          -2.76851955138281   -3.98444975021975    6.33276658601943
C          -2.69827303480998   -2.64297031001242    6.06633082215549
C          -3.07535131962140   -2.03311363900221    4.85063572525813
N          -3.38075400527356   -1.46685966030873    3.89967545253568
C          -2.27239949723119   -1.67597210555227    7.00170286630881
N          -1.93003471854747   -0.84551693836227    7.71601779023913
C          -3.34995919755648   -4.90911144555418    4.07245147379340
C          -3.74252563370383   -5.86001141417353    3.11785749724580
C          -3.62938173165050   -5.62857956640441    1.74039202843069
C          -4.04869254616028   -6.71042042085034    0.99011577031730
C          -4.52949026926057   -7.76301827598344    1.80398477488212
S          -4.41207361232680   -7.45034561696999    3.46683096531983
C          -4.90317462481641   -8.82995808538405    0.94950116612690
C          -4.65095584143999   -8.47465076119114   -0.38369240023727
C          -4.11631233653263   -7.12246653168492   -0.40617488356071
C          -3.73465702183125   -6.40294313015496   -1.49951042996487
C          -3.82550597622576   -6.91965576708405   -2.80965433767774
N          -3.89188927276891   -7.33893006729135   -3.87453734476383
C          -3.20986754295905   -5.09704827903590   -1.39352282742845
N          -2.77511739361037   -4.03936284730082   -1.31502458262052
C          -4.93742569815936   -9.50880521866523   -1.28393722815835
C          -5.38509346336220  -10.64241051009585   -0.64235038652397
S          -5.50849191902346  -10.41285584389850    1.09644281817715
C          -5.77132488976846  -11.89804829054018   -1.24154474031154
C          -6.27813366224642  -12.01691642798175   -2.50512678672485
F          -6.47315275110640  -11.02677125328308   -3.37026372822652
S          -6.73825866132659  -13.62243528327770   -2.95898391795715
C          -6.24645468233572  -14.15845893366673   -1.38912643352552
F          -6.33676945641711  -15.45221268212545   -1.09028917422729
C          -5.73985581008788  -13.18290247320875   -0.57976269357596
C          -5.20898339411494  -13.35360935307830    0.74796638088439
C          -5.58428605086050  -14.26567198029381    1.66385936720745
C          -5.13552315987802  -14.19075901097067    3.01816038615978
C          -4.53119763025039  -13.10871187583252    3.63654110728665
C          -4.34091578986458  -13.31925937969440    4.99868832111655
C          -4.79059970021049  -14.58042069020215    5.42518145447641
S          -5.45697496150187  -15.49367087629484    4.14380086787850
C          -4.57200726478341  -14.68003362991225    6.82128283858322
C          -4.01332806447157  -13.46904791756162    7.28164528507492
C          -3.84809097934495  -12.57523047209332    6.14845750347536
C          -3.35768777661850  -11.30107847237997    6.14081682653141
C          -2.96453583656221  -10.63518101346552    7.31832074368089
N          -2.65704608654058  -10.08984086367147    8.27935654102187
C          -3.21981664642948  -10.57475064620002    4.93911462242516
N          -3.09751798617206  -10.01828950326551    3.94373510611291
C          -3.78300622123717  -13.47243089658612    8.65357850978319
C          -4.11207092916747  -14.68398346866086    9.24104620742299
S          -4.78243193681503  -15.81726226026794    8.06581960916900
C          -4.03399982727159  -14.99295282709327   10.61879157903337
C          -4.01937186891359  -16.21122880201841   11.22525435275741
C          -4.42917396592075  -16.32718140787231   12.65358823158493
O          -4.56872619535322  -15.42226356399288   13.44147343051498
C          -4.68777007624951  -17.76694926638514   12.86219487736423
C          -5.20593370916331  -18.39605735911714   13.95735758522987
C          -5.38998472420694  -19.79670590667242   13.92193191218235
C          -5.03567068825635  -20.52045906797970   12.74605349098560
C          -5.22598720831227  -21.91663108844466   12.71644774040812
C          -5.74156594882062  -22.56443303752788   13.80363090384393
C          -6.09168619536319  -21.84795024647565   14.96620566684297
C          -5.91978542641613  -20.49334756731444   15.02564103983925
F          -6.59740088730710  -22.50899626051604   16.01513866487394
F          -5.92071967265801  -23.89077321077565   13.77454010396561
C          -4.49575480584451  -19.84307496288682   11.62908473162202
C          -4.31944636097521  -18.48693068697502   11.68948979564536
C          -3.75845553758368  -17.54443664964719   10.72615364831932
C          -2.90046028350601  -17.87211926535969    9.70869548371044
C          -2.15922148212787  -16.91613401813283    8.98458888478244
N          -1.51726550708894  -16.16302717776819    8.40262555710301
C          -2.59890143200731  -19.19706698140070    9.33423703440889
N          -2.33905447312772  -20.25751672353941    8.98106956683694
H          -0.91458150909410   -3.43502584696702   11.16938068176872
H          -2.05152241294889   -8.24827214822789   10.80480983657766
H          -1.65930473023199   -3.06732426841752    8.87171269753643
H          -2.84502249136402   -7.89889125705525    8.48823319979086
H          -3.07044268728722   -3.95721294022041    3.63588042682008
H          -3.23869325039290   -4.70807693617124    1.34404763691540
H          -4.80205514613989   -9.44923427014442   -2.34833939743946
H          -4.45454137065901  -12.63186447522513    1.02102591460178
H          -6.28704650442625  -15.04884156835903    1.41961988414009
H          -4.27748248460279  -12.19955537506791    3.12611070184594
H          -3.36428408534564  -12.65566163273735    9.21332046557075
H          -4.07081962922862  -14.14065520236462   11.29119444237885
H          -5.47168978083556  -17.83363936763000   14.83939018716515
H          -4.95951857101789  -22.48024545824110   11.83602802285842
H          -6.19244799862583  -19.95996505734244   15.92275011261955
H          -4.24382185711485  -20.41174073565320   10.74804476757823
