96
 SCF done       -180.713834045628          0.000934583502
C          -5.49774433887819    0.86318262949511   -7.38417956986669
C          -5.75988838571312    0.76043518200912   -8.72169339137940
F          -5.78251413505045    1.85931299826500   -9.49065650845365
C          -6.00913317756059   -0.49509585174131   -9.30837667394535
F          -6.26352890534753   -0.56766578800978  -10.62415452570324
C          -5.99391182320081   -1.63183524164665   -8.54939235850559
C          -5.72858896088164   -1.55855678662214   -7.16863990068644
C          -5.47480624272225   -0.28941147884536   -6.57410333935781
C          -5.20520033696744   -0.19016085472417   -5.18890295011633
C          -5.19372298987344   -1.32450942822642   -4.42240522815252
C          -5.45369496274699   -2.58646039691624   -5.02501330250656
C          -5.71225401768797   -2.71628189951343   -6.35796759555279
C          -5.39864841399625   -3.63241988174501   -3.98618204517608
O          -5.56860800236897   -4.82840777192888   -4.16510532171025
C          -5.11252350663503   -2.94634340268709   -2.72862444214687
C          -4.95532972428049   -1.53422807331793   -2.99423149246917
C          -4.62316977899627   -0.54276833643332   -2.10311701641404
C          -4.35144207823508   -0.71963244557030   -0.73143140235154
N          -4.11206526139736   -0.77100534117143    0.39140422893794
C          -4.49021350858875    0.81669844894479   -2.44999308071190
N          -4.36269773582350    1.93798581160073   -2.66500746205152
C          -5.04543097274554   -3.54390759149890   -1.48671473584023
C          -5.19128640929454   -4.87914721344690   -1.11264809502829
C          -5.12896351391313   -5.28190121330976    0.23113237342043
C          -5.30068726495016   -6.63865212203939    0.39166013065303
C          -5.48953358572108   -7.31031160056100   -0.85050510840500
S          -5.46825259358982   -6.25556029487295   -2.19275110342615
C          -5.65466714291324   -8.67691022201569   -0.57852850895653
C          -5.58037914141162   -8.88962632438273    0.81501404694756
C          -5.35139115528623   -7.61090330916173    1.46614642431572
C          -5.21239289600054   -7.38616722080240    2.80788955871005
C          -5.28005749162758   -8.43118795086984    3.74976972737345
N          -5.33951647169674   -9.28546431419271    4.51413224867594
C          -4.99110654288358   -6.10082561863505    3.34167611316018
N          -4.81402319270596   -5.06036542941424    3.79090124430493
C          -5.73723434712426  -10.22031561109694    1.17942098575972
C          -5.92609022565757  -11.04699422333567    0.07961440964777
S          -5.91174267324342  -10.14355121764045   -1.43324586913601
C          -6.10753328099037  -12.44723498230685    0.09106696368704
N          -6.21219158253156  -13.19352807268370   -1.06544723370382
C          -6.36342030131152  -14.49969995530191   -0.72311136722075
C          -6.50623976399762  -15.78519914466454   -1.23028405687152
C          -6.60063428936179  -16.63506327529561   -0.11829872728130
N          -6.52113116411864  -15.88062510950605    1.03600405388540
C          -6.36587416511424  -14.57489490668472    0.69509232563081
C          -6.20258297499392  -13.29461305803210    1.20565491871354
C          -6.74853368330367  -18.04133427270727   -0.04786547915607
C          -6.72803543217293  -18.88576552061469   -1.11234550681885
C          -6.86547159691375  -20.29184252826569   -1.03674470712309
N          -6.72205328154708  -21.07711168113171   -2.16526805412127
C          -6.88181929810898  -22.38018234170699   -1.81543568965220
C          -6.87476081384168  -23.68057292873818   -2.29857480892814
C          -7.14790892086747  -24.50827381830673   -1.19596897119980
N          -7.31938066968031  -23.71991372715631   -0.07150504283878
C          -7.15283179262906  -22.41806422168036   -0.42111938400237
C          -7.13879255449632  -21.11761645061004    0.06443574051596
C          -7.25251115849447  -25.91127938625994   -1.12215688998904
C          -7.03199770197891  -26.77261098458867   -2.16110046669399
C          -7.14153274480180  -28.16366755270366   -2.05426322606534
C          -6.88165124236829  -29.04564468792409   -3.07564862386645
C          -6.97706018863158  -30.45722008060000   -3.02773959703720
C          -6.64326441752078  -31.08444181496257   -4.18821082089619
C          -6.25901370027946  -30.20401755899942   -5.22779331742542
S          -6.34931011171246  -28.54315513477300   -4.67379096065024
C          -5.85380063006354  -30.52753839654409   -6.50234382221207
C          -5.73403910967282  -31.82701877217359   -7.06656197926390
C          -5.29922058085442  -31.84246226150504   -8.34672031810682
C          -5.03903430733113  -30.54521549217950   -8.90028388435761
S          -5.39033016047641  -29.31258027024298   -7.67780360229067
C          -4.59911983474588  -30.24970552118237  -10.13138993877250
H          -5.30834057283235    1.83253248295457   -6.95012705614706
H          -6.18729861239352   -2.58603313781336   -9.01404768091947
H          -5.01784869993171    0.78573221331627   -4.77191228174507
H          -5.90427430264056   -3.68733565663793   -6.78857416879434
H          -4.86343271807180   -2.88742308377152   -0.64436802768433
H          -4.96502108942731   -4.57772220257718    1.02802087904145
H          -5.71264818158573  -10.59017771811455    2.18707517289584
H          -6.16983032300433  -12.80914483611547   -1.99373174366300
H          -6.54773357557961  -16.08688600050170   -2.25677264589233
H          -6.55094447154964  -16.25895449185921    1.96688703496027
H          -6.15823080731449  -12.98716260612719    2.23016208093662
H          -6.86759515086408  -18.45633624507553    0.94368645545121
H          -6.57828851264693  -18.47428403458539   -2.10129441859508
H          -6.50736564942139  -20.72265028453817   -3.08108024394400
H          -6.70382362911698  -24.01311952882321   -3.30184614824561
H          -7.51550840191106  -24.07744532596823    0.84724825305573
H          -7.30861451729368  -20.78795404687824    1.06910222620529
H          -7.51819414138186  -26.32615662414586   -0.15694176948753
H          -6.74710642085798  -26.37461232624653   -3.12507885918184
H          -7.44592148451634  -28.58563754509159   -1.10476154437811
H          -7.29056035665153  -30.96437218924110   -2.13188448321130
H          -6.65971859279218  -32.15077032354819   -4.32527359221256
H          -5.97579437593082  -32.70802292942594   -6.49868874185408
H          -5.14736253432420  -32.73008190351936   -8.93488725982636
H          -4.39577922046220  -31.03007553761939  -10.84321817571829
H          -4.43405026073294  -29.23534284916756  -10.44477127262595
