110
 SCF done       -217.926241107957          0.000797313713
C           0.48796834113403   -1.44549789086016    6.92287791046116
C           0.75331064471436   -1.73646964444530    8.23180588801914
F           1.29552531768279   -0.80880158084992    9.03115883237612
C           0.46210001702914   -3.01158184393558    8.75651077989176
F           0.73365758663132   -3.26931289572796   10.04285293573225
C          -0.09088430266411   -3.97876134989529    7.96456646656795
C          -0.37447673751018   -3.70979107556531    6.61167256465397
C          -0.08080697199381   -2.42089805471389    6.07973936923545
C          -0.35464239226440   -2.12778895234548    4.72350096173074
C          -0.90202316353604   -3.09490115912138    3.92288617621992
C          -1.18800946446220   -4.37996031010152    4.46331122967441
C          -0.93974357051104   -4.69227957253034    5.76855363959554
C          -1.74914434592771   -5.23220217648842    3.40251711494282
O          -2.11965536441327   -6.38805681641207    3.52554697575502
C          -1.75678509855320   -4.42038310251129    2.18289909677254
C          -1.28095803830537   -3.08993268898696    2.51078575244137
C          -1.21885854741697   -1.99963152464001    1.68229275188404
C          -1.62395740384871   -1.96817665630630    0.33120830856120
N          -1.94195357732578   -1.85922394709719   -0.76699385864467
C          -0.75166051371867   -0.73024459377930    2.08408940641435
N          -0.38519557449975    0.32483394450373    2.34935329399519
C          -2.09171636377524   -4.87209941156907    0.92966512541170
C          -2.54749238492756   -6.12894958977683    0.51080549029506
C          -2.76544154291415   -6.41971820144704   -0.84297722046454
C          -3.20983157073619   -7.71067816910211   -1.04349201018671
C          -3.35625968069162   -8.42301683803155    0.17489294452327
S          -2.92034452957764   -7.51159135226111    1.54493184321255
C          -3.80252724289434   -9.72830859753657   -0.13531978769637
C          -3.93183424199264   -9.84820785147194   -1.53177523467686
C          -3.56681776646185   -8.58395605011772   -2.14878538678462
C          -3.55313323499224   -8.29861974461044   -3.48311040016207
C          -3.90866570750930   -9.25636828903650   -4.45514114807781
N          -4.19155189287530  -10.03769122271269   -5.24620457243723
C          -3.17357703156368   -7.03418923976025   -3.98176526867978
N          -2.85791791073612   -6.01296094075407   -4.39549967271514
C          -4.35217296736451  -11.11150509113603   -1.93343079857436
C          -4.55018415628006  -11.95823624193388   -0.85442371964284
S          -4.21480440164814  -11.17645946803674    0.68030266286774
C          -4.94995487973517  -13.31450179905030   -0.92399524846677
C          -5.25012929074414  -14.19327186734840    0.10154442224576
C          -5.58734989659690  -15.45946233812626   -0.37862597139044
C          -5.53286374045175  -15.53835839864224   -1.78244833554197
S          -5.08565452390039  -14.06594926766998   -2.50988037703782
C          -5.86562082844756  -16.85032543068974   -2.17940799336934
C          -6.14286416089131  -17.61543246556115   -1.03347977307066
C          -5.97918240981659  -16.76244453320648    0.13757327468191
C          -6.15187354368149  -17.11443842376265    1.44361858105770
C          -6.52968807824068  -18.41960236950325    1.82382281716631
N          -6.83090886660135  -19.48153443689836    2.13351388427932
C          -5.95708623250277  -16.19582077396066    2.49672523154541
N          -5.79568925739753  -15.44681383489070    3.34962852901312
C          -6.47493875647476  -18.93524205722060   -1.33559482832312
C          -6.44754318649994  -19.17970759789544   -2.69934474128776
S          -6.00152148436408  -17.74679795073415   -3.61964168177599
C          -6.72872977757063  -20.38595426003983   -3.39998664505690
C          -6.67931411841596  -20.43967366507067   -4.77352204880576
C          -6.95735880547468  -21.55909566257514   -5.54411396185135
C          -7.33972247346803  -22.83144725523844   -4.93117014229360
C          -7.44419030800334  -23.01342504540968   -3.59510334652238
S          -7.15118751041521  -21.78652267802562   -2.42970170903195
C          -7.58029147022193  -23.70849941158533   -6.02514236534460
C          -7.39358588908676  -23.03187334470154   -7.23665284777712
C          -7.62942409233530  -23.87180942375839   -8.34688152184265
C          -7.98206745465582  -25.12622216609848   -7.96147572038938
S          -8.04425034776391  -25.34558263537785   -6.24653660064708
C          -6.99993040594067  -21.67856962148789   -6.95159959092779
C          -6.77873153566570  -20.58312135389972   -7.80630321110604
C          -6.99899086334328  -20.47395169794601   -9.14634903785660
C          -6.81983158104742  -19.25537878991179   -9.84301253039043
C          -6.79360051097782  -17.98001713418602   -9.34938580935485
C          -6.13947730124207  -16.90850448023070  -10.15415792734672
O          -5.82930064548951  -16.97181577085193  -11.32266032984677
C          -5.90840443076216  -15.80134454630091   -9.20786037639591
C          -6.50273124312528  -16.11107488844524   -7.97168243431090
C          -6.38998964150204  -15.22087436737475   -6.91782890617452
C          -5.70007457670971  -14.02500228780690   -7.09497788354987
C          -5.11434608021477  -13.71767156819899   -8.33351365543410
C          -5.22304522864520  -14.61738430492110   -9.39004669671367
C          -4.37917480703824  -12.43039455222967   -8.51741276605396
C          -5.58487908079847  -13.06798414743289   -5.95375596419523
C          -7.19062672073450  -17.39342221676746   -8.08692617790735
C          -8.20070951145367  -17.81320671295002   -7.25500273261347
C          -9.02494748381028  -18.92642568750016   -7.51192202024800
N          -9.75060857037778  -19.80012894788742   -7.68094818662719
C          -8.55892524529101  -17.16658481248232   -6.05799899082133
N          -8.86456186103865  -16.71914710415309   -5.04417693192809
H           0.71649471122000   -0.46409650503456    6.53749029266323
H          -0.30784382637536   -4.94989584861716    8.38116816180731
H          -0.11781996614061   -1.14364856678973    4.35351847931362
H          -1.16833887047535   -5.67533278138039    6.15124016969667
H          -1.97591484544686   -4.17207136279125    0.11091322900962
H          -2.59153108307802   -5.69445549839833   -1.61837990529394
H          -4.51518125313472  -11.41844085949501   -2.95087189535207
H          -5.22157704236526  -13.90780321356397    1.13790166876181
H          -6.72811076658241  -19.69139114225713   -0.61421910012599
H          -6.40886694890951  -19.52064256751233   -5.27646061774799
H          -7.73523425301691  -23.95469577822535   -3.15627489288952
H          -7.54519096047042  -23.57950877212799   -9.37688999804555
H          -8.21794907893988  -25.96266565720621   -8.58994978091377
H          -6.39315081340098  -19.70028371585893   -7.31234703873954
H          -7.27778240664476  -21.33998227096798   -9.72645110460401
H          -6.61247235269421  -19.32563377198820  -10.90664700592567
H          -6.82158046575879  -15.44361411865082   -5.95423579158056
H          -4.78156208755834  -14.39774413263301  -10.35066796643986
H          -3.57707805967869  -12.33828835056969   -7.78649409504582
H          -5.04761775430001  -11.58316217461796   -8.36827868820426
H          -3.95472407823749  -12.36672346016649   -9.51553229200363
H          -6.17181311458989  -13.41003046659451   -5.10570649340304
H          -5.92793276200986  -12.07645497442438   -6.24217312880044
H          -4.54518742244336  -12.96788173656946   -5.64339937119204
