120
 SCF done       -244.365590560697          0.000831550665
C          -6.97826917809027    2.91260943283584    2.41656025766371
C          -7.87775561507841    3.66901519806385    1.71898465247948
F          -8.10966285901674    4.93897715156331    2.07613177716360
C          -8.57219329157879    3.12602025126139    0.61925306066754
F          -9.44954806664605    3.89056319261320   -0.04467527419754
C          -8.35714623737334    1.83306072205421    0.23214069928921
C          -7.43811256964958    1.02759041618758    0.93212029022776
C          -6.73409423881303    1.57552164795786    2.04363856708976
C          -5.80655816865125    0.78568575580224    2.76126999507980
C          -5.59268955883290   -0.51255868159227    2.37941414569217
C          -6.30541621736302   -1.05246560870438    1.27378026811720
C          -7.20443936257269   -0.31467963814399    0.55957708737189
C          -5.92172243654607   -2.46397406398435    1.07531632337033
O          -6.36868099724544   -3.21208235901106    0.23296831158795
C          -4.96814390444103   -2.77078679658521    2.16954411399557
C          -4.71987262910332   -1.55204210676284    2.91518442502664
C          -3.77443920142196   -1.37494914326757    3.89199568342403
C          -2.86597978555954   -2.36409675028308    4.32434289034226
N          -2.08648383115646   -3.11480578870015    4.70838888738829
C          -3.56099991189056   -0.15579333195565    4.56837349936522
N          -3.34965477079673    0.80703638371635    5.15647297955931
C          -4.57038877847093   -4.02043188391365    2.56361556096743
C          -4.68667866120626   -5.23449038175324    1.86007191548814
C          -4.82088761796444   -5.49618558677331    0.50210803201493
C          -4.89870943009849   -6.85566991312601    0.23672803781869
C          -4.82829769120663   -7.65449358910637    1.40160533737245
S          -4.61535678170183   -6.72703791032806    2.80927171585997
C          -4.98629320976913   -9.00821807049420    1.02673662646294
C          -5.14550400205208   -9.07422027277916   -0.36957170768051
C          -5.07557050565627   -7.72513701322025   -0.91341496375047
C          -5.15286747134261   -7.36388632873761   -2.22562142243831
C          -5.33712208648821   -8.31814643342475   -3.24916485644240
N          -5.49105689936037   -9.09548637286040   -4.07782239189467
C          -5.03400730639411   -6.02496373473553   -2.65835680504585
N          -4.91459572110063   -4.94791940374959   -3.03149012665203
C          -5.34286347766932  -10.37249209623013   -0.83249903730435
C          -5.34527352872165  -11.29498204879001    0.20077618134522
S          -5.07968861201868  -10.54761305253579    1.76706746983174
C          -5.57029990207744  -12.69019773247717    0.10570477682429
C          -5.66275096433223  -13.60284043346762    1.14120246169910
C          -5.94883011499148  -14.88644036834030    0.67999533097442
C          -6.06691297456487  -14.95161462425174   -0.72045034444483
S          -5.82626306302510  -13.43642152051934   -1.46738312662010
C          -6.38814081909450  -16.28242713148379   -1.08567984976407
C          -6.48022758003244  -17.05774726428275    0.08268679160545
C          -6.20012894349761  -16.20826038759899    1.23042407373077
C          -6.18824232532010  -16.57317733791605    2.54423750397378
C          -6.46304467049255  -17.89432891488512    2.95619521177542
N          -6.68733023079795  -18.96684267950281    3.29330564937795
C          -5.90482599628845  -15.65130562997555    3.57425078119149
N          -5.67552197768618  -14.90068864323819    4.41007517142856
C          -6.82392820583070  -18.38448559380351   -0.17124866372846
C          -6.99123276545098  -18.62486006532185   -1.52344100307509
S          -6.71339610576902  -17.18897512560907   -2.49736568594829
C          -7.36733651311674  -19.84434395356237   -2.14036800570202
C          -7.50102732658802  -20.10572948647666   -3.49149963235251
C          -7.91722382156785  -21.41554533056048   -3.72987209710942
C          -8.10419250563618  -22.15259724435333   -2.54930859185712
S          -7.75915703480758  -21.24233670653654   -1.14760536386049
C          -8.54335313074933  -23.45666063933940   -2.89583282725907
C          -8.62993961991362  -23.54532741494624   -4.29259322241778
C          -8.23504267663591  -22.26877299200237   -4.86606289349978
C          -8.17441920145836  -21.93790453846987   -6.18767733330840
C          -8.50613186240938  -22.85891780491126   -7.20363841225567
N          -8.77754728254543  -23.61134497648658   -8.02502437702054
C          -7.77574205041645  -20.65569680722867   -6.62073331790096
N          -7.45236228314859  -19.61286315565793   -6.97061460229729
C          -9.07350468590968  -24.79721828568030   -4.72980638084843
C          -9.33000345137109  -25.65768272952144   -3.68338769993166
S          -9.00865878480105  -24.90493397218252   -2.12692138930209
C          -9.81188603449833  -27.01541998687689   -3.73819198813466
C         -10.16587435761537  -27.69259286383350   -2.56170949535399
C         -10.63851950737558  -28.98586897891576   -2.57146666267075
C         -10.76638262207880  -29.65186243890952   -3.78738515604703
C         -10.41779376379126  -28.97459090287947   -4.96659013687177
C          -9.94599135259008  -27.68168955984790   -4.96179888481999
S         -10.67081906184825  -29.99702046722871   -6.36372299252640
C         -11.26519336398374  -31.27999668825719   -5.33085794530157
C         -11.70415379070577  -32.49313367740465   -5.80117584189070
C         -11.62842619169090  -32.86073679776802   -7.14402762315997
C         -11.90819648253968  -34.08414117818396   -7.70378541196380
C         -12.14789437768306  -35.38464589435360   -7.14092326192417
C         -11.74728148816922  -35.87078207905638   -5.91600598506289
C         -12.00174107318404  -37.18109981298826   -5.46228108398949
N         -12.18975149709783  -38.22055086936720   -5.01086099096390
C         -10.96358456915862  -35.18195410366125   -4.97642370368401
N         -10.30758029726577  -34.68908042771420   -4.16883887166754
C         -12.73191805892546  -36.21459314400115   -8.20112293181032
C         -12.67160233337822  -35.50896859111881   -9.41589672539279
C         -12.10471552862802  -34.16652076750515   -9.16969251531660
O         -11.87692492377606  -33.29609319311009   -9.98256699497278
C         -13.11883013000547  -36.06186239695060  -10.59851313636308
C         -13.64773575883428  -37.34537744797179  -10.56475886918938
C         -13.72580019929844  -38.04135124138472   -9.36829469729069
C         -13.26959193794405  -37.49046474263684   -8.17677907988060
N         -11.21186082363185  -30.92934751726873   -4.01508447645058
C         -11.50145343268878  -31.88178554346024   -2.97200615844831
H          -6.45437057034349    3.34468705104326    3.25484378925463
H          -8.89616902524839    1.43138158061405   -0.61155121274987
H          -5.29483230058009    1.22688336272231    3.60125731834175
H          -7.72905613046678   -0.75057705143128   -0.27695823023254
H          -4.15448251361851   -4.11832801058622    3.55989209695757
H          -4.85316711554788   -4.72336860952053   -0.24208196211548
H          -5.49128286161669  -10.65028564557496   -1.86057358907723
H          -5.53593304114846  -13.32757163628659    2.17294385766858
H          -6.95295927007934  -19.14663403646487    0.57618077215666
H          -7.30331693388516  -19.36904406153572   -4.24946157277226
H          -9.21224506610567  -25.05672997930653   -5.76264865282203
H         -10.07225444876802  -27.18066697481423   -1.61574940133718
H         -10.91165490488081  -29.46047337968537   -1.64305737239765
H          -9.68336161099476  -27.20572593951361   -5.89119013158291
H         -12.12328755668761  -33.18698721919838   -5.09339938564870
H         -11.36781417264669  -32.08639647032599   -7.86009355738980
H         -13.05258276117166  -35.50008216615638  -11.51756929587848
H         -14.00401314613971  -37.80425390276798  -11.47484324046903
H         -14.14918714310697  -39.03464300820757   -9.35698158978438
H         -13.34957020189615  -38.05355223098153   -7.26123275312235
H         -11.01326632965145  -32.83565023014854   -3.19552243909472
H         -12.57788635419448  -32.04318662456660   -2.88178289042497
H         -11.11746010144803  -31.50992580615229   -2.02662407223896
