88
 SCF done       -186.235396164973          0.000517390433
C          -1.32370445191373    2.95297558543971    2.99398843438813
C          -0.08969681145107    3.28608600106710    3.47740637333644
F           0.17735899458651    4.54938771453208    3.82824201494219
C           0.91655200503585    2.30717702374565    3.61291999563852
F           2.11565298733918    2.66309254172348    4.08936895061993
C           0.67460447501305    1.00877075496440    3.26155217275222
C          -0.58674740851396    0.63401656670056    2.75842978154208
C          -1.60596986124883    1.62218090441459    2.62401793877163
C          -2.88081714830404    1.26862401693803    2.12857650505666
C          -3.12979956730237   -0.03345171908502    1.77858286978515
C          -2.10275263427408   -1.01112009903130    1.90428428255778
C          -0.86109011594197   -0.69833915405638    2.38046341095750
C          -2.59961201740749   -2.31824294200720    1.44449101312979
O          -1.96723699652373   -3.34577455934926    1.35020915719796
C          -4.00817304124070   -2.07572555741129    1.00862187673735
C          -4.33219920650814   -0.67958287486500    1.26960597934527
C          -5.56911791147168   -0.10955412123347    1.15752912120096
C          -6.73967750316401   -0.80196674345361    0.77501250844951
N          -7.72948309879793   -1.31251602022199    0.49948295166939
C          -5.84398020117865    1.24360076920700    1.45418352229968
N          -6.11956574898569    2.33562388486649    1.67127562311023
C          -4.75817123022804   -2.96351878708853    0.31624526254547
C          -4.46590661257836   -4.36892261484488    0.19802043320523
C          -4.64773571951506   -5.08465408983025   -0.97429568170642
C          -5.05564405257672   -4.55510941355609   -2.19829379529685
N          -5.39756760951672   -4.10215730584740   -3.19632082136308
S          -4.22533755795357   -6.75786150424684   -0.80069315714893
C          -3.85543441416221   -6.53535735441778    0.88312079943342
C          -4.02808107382864   -5.20780167213599    1.26101586057146
C          -3.89730416140058   -4.74233527156052    2.57686463609305
N          -3.82895253148164   -4.36285562292190    3.65918588797992
C          -3.44794277679566   -7.64270293349263    1.66958775231597
N          -3.06424124558611   -7.53432222067868    2.98952925367021
C          -2.75785358124610   -8.77566481091627    3.44300098146394
C          -2.33611968558265   -9.49183237312628    4.55888921466680
C          -2.28802807282975  -10.83290791339804    4.16163582830986
N          -2.66395186233339  -10.93759853175949    2.83774758059498
C          -2.95439104349518   -9.69481768469247    2.37748095241911
C          -3.38377068880908   -8.98223514338055    1.26391540584660
C          -1.94287272859936  -11.93508643440007    4.98578866060337
C          -1.96281295172783  -13.23494764780042    4.61070643186952
C          -1.65800720962850  -14.35053629834263    5.45123755548561
C          -1.77615517169347  -15.65989027743857    4.98423811039492
C          -2.18764767204661  -16.03059678041976    3.70561898482124
N          -2.53492556107010  -16.30914078696896    2.64640115815551
S          -1.37700270312260  -16.85540634513422    6.16806089528210
C          -1.03606449916765  -15.62165823423497    7.33920984833280
C          -1.24757707918045  -14.35059333362169    6.81555535646350
C          -1.02871668181223  -13.21948036314459    7.62035016874906
N          -0.84966517674108  -12.33293795995613    8.32649074724306
C          -0.70879074251309  -15.90765552221275    8.69521776878038
C          -0.16785770941015  -17.02980153006912    9.22593331097678
C          -0.34624270622494  -17.30752852452828   10.68627420615300
O          -0.69532449137642  -16.52104306864548   11.53051642433764
C          -0.07614458351639  -18.75082829041896   10.83138618853220
C          -0.23669071463108  -19.54436058608603   11.93124216447283
C           0.05841716175205  -20.92208581914287   11.83223698144807
C           0.51246660052985  -21.45472598412148   10.58962664747348
C           0.79585262060282  -22.83238007310500   10.49730938870886
C           0.63860205851999  -23.64233951902741   11.58686785827397
C           0.19122403807550  -23.11418280183902   12.81575257117843
C          -0.09247984211142  -21.78273357357012   12.93722554742594
F           0.04497603124548  -23.93159949854285   13.86477974359922
F           0.90771950156567  -24.94948749204245   11.49770290184838
C           0.67742718025663  -20.60828416049395    9.46989104594184
C           0.39225036092687  -19.27438631976404    9.59146268267781
C           0.49746243117091  -18.17697927827185    8.63594748956876
C           1.30739593436811  -18.15394915779937    7.53374702998630
C           1.56985942299720  -16.97701978987386    6.80063245000513
N           1.81856178711264  -16.02435088738658    6.21157782990810
C           2.02696801975217  -19.27521642986381    7.06961795120943
N           2.61557496593589  -20.16659410775146    6.65195024218627
H          -2.08280143112976    3.71361898836472    2.89869221229233
H           1.45494699396107    0.27204579498819    3.37091591016874
H          -3.62951905037831    2.03841318808273    2.03319916196123
H          -0.10135817868446   -1.45979767058711    2.46961038076564
H          -5.63746041615379   -2.62640376923851   -0.21919097503006
H          -3.01919369669987   -6.67240715253834    3.50820167862186
H          -2.09605710649771   -9.12494984227437    5.53603147721762
H          -2.70158501252521  -11.79336263661255    2.31226129635369
H          -3.62993291494478   -9.34858677483495    0.28706013770004
H          -1.66288206455671  -11.67096976587700    5.99434864167918
H          -2.24571069966119  -13.50816821934563    3.60201356992506
H          -1.00650959072559  -15.14793284094066    9.41381837183731
H          -0.58520589153093  -19.12627113296399   12.86324045472030
H           1.14259222465609  -23.25246821831907    9.56612739779037
H          -0.43388052689726  -21.39410343473544   13.88384410488251
H           1.01335665357163  -21.03607636206285    8.53850895987309
