80
 SCF done       -177.140802529631          0.000439183091
C           4.53485965095915   -1.66845191246654    0.48353753607713
C           4.67695279640040   -1.01974826804012    1.67264800617061
C           4.05652764265311    0.24369358930888    1.64306420898008
C           3.45370950023258    0.51389748656554    0.40884198437713
S           3.64729760796686   -0.76814602248047   -0.70062343079515
C           2.85405071024054    1.80493226249729    0.46857081172930
C           3.08437131825012    2.34234003374654    1.74218656266874
C           3.84634981945555    1.37679782400074    2.52531152074102
C           4.26336001438593    1.51544716612726    3.81649330492771
C           3.98605257455345    2.67397621198724    4.57246520270938
N           3.75998975289882    3.61499875727089    5.18735417088181
C           4.99546233470169    0.51026609445191    4.48298901720797
N           5.58988127673098   -0.30390151182705    5.02913391996617
C           2.53358442251929    3.61440436265682    1.90337824066833
C           1.88482824424371    4.04365375054296    0.76119865320453
S           1.95883423582746    2.85684226179603   -0.53308677768145
C           1.20663578936770    5.27474868010068    0.56404006689710
C           0.52093406905369    5.69083149188752   -0.56258624869682
C          -0.03266794629953    6.96050853390344   -0.39403791128415
C           0.23870739156076    7.51228613557765    0.86747904228204
S           1.17182474245227    6.47126179425482    1.84878665491795
C          -0.36897166761946    8.79230377481805    0.94712956282923
C          -1.03127851013835    9.04555726747522   -0.27206332897489
C          -0.83850539141989    7.90709775981507   -1.15357745491032
C          -1.30863437325882    7.75041481662372   -2.42427444075173
C          -2.08676201922283    8.73564558064295   -3.06856746501861
N          -2.72082572226472    9.52801403786938   -3.60183683370498
C          -1.04712499916360    6.58872065398670   -3.18109733859957
N          -0.83516749621200    5.64473190730163   -3.79646767660226
C          -1.67148265196962   10.28389681153272   -0.28542611519464
C          -1.48774431077039   10.95650503963540    0.90610190205298
S          -0.52217406831549   10.06917072681792    2.06336226201289
C          -1.96881367021062   12.24734158085363    1.27824677215725
N          -2.75878494246582   12.92885153063395    0.42976156782919
C          -3.17995495041052   14.09526606874190    0.84135744009498
C          -2.87321526910721   14.55571993752526    2.14125064518213
N          -2.05708795450232   13.82436192583375    2.90377162860004
N          -1.58315983084498   12.71693980096183    2.46992194311848
C          -3.40798743273183   15.79082076961673    2.67901332260232
C          -2.74125095960448   16.55451576608562    3.62770128141017
F          -1.52332665490807   16.19947525438196    4.04719850801816
C          -3.28286330047816   17.73445234616161    4.16311007655796
F          -2.55867285623183   18.38882522383320    5.08262577898414
C          -4.54622547256228   18.21420551305012    3.84284145931556
C          -5.22051567072285   17.48025968941461    2.84308284360209
C          -4.65832946119900   16.30050842876426    2.26904109317059
N          -5.52890997030542   15.85733842941677    1.34899622680365
N          -6.50260509832446   16.72310672469353    1.38316731857525
N          -6.38652576142591   17.70744421260434    2.22652773928980
C          -7.65053121332852   16.58627592563420    0.54223839140651
C          -5.07905315981477   19.40240909851957    4.45269155598169
C          -6.37433836933595   19.57319707891973    4.81265295082775
C          -6.98157949960044   20.80269752521389    5.30195368134665
C          -6.44729961867657   22.05828862102172    5.21899623005542
C          -7.09226122125723   23.22502853482158    5.68554335257618
N          -7.56297996760380   24.20597655381280    6.04904357386759
C          -5.20381764571351   22.37078637907793    4.62539458780329
N          -4.22203364393637   22.70704810863213    4.13617091976349
C          -8.30744594327643   20.46801231971603    5.80883650049558
C          -8.54717094034210   19.09941713118290    5.59404450833759
C          -7.36493733357346   18.46988143258549    4.96883436491072
O          -7.21580417782842   17.29208226589845    4.74195402412220
C          -9.73229004483264   18.50114902050898    5.97260839348172
C         -10.70656215259094   19.28735480658332    6.57400549983817
C         -10.47513382214309   20.65117934782745    6.79466923020308
C          -9.27844089393967   21.24893446155093    6.41645718972914
Cl        -11.68311353975103   21.60868948775224    7.54911283128318
Cl        -12.19679977295729   18.58271808122722    7.05070660774005
H           4.90190718121407   -2.63958333579905    0.21807182853405
H           5.19823402976696   -1.42960297213718    2.51823767728133
H           2.59146458118216    4.20771393664083    2.79824377883639
H           0.43579633672555    5.08800765587032   -1.44888019205237
H          -2.24126430489610   10.69692209362469   -1.09755729534097
H          -3.76315189636343   14.68714167638727    0.15089961609361
H          -7.46134709729129   15.77984576627362   -0.16216822410171
H          -7.83217613429806   17.52237089103010    0.01518460923593
H          -8.52515936180410   16.35103046405594    1.15019406599928
H          -4.35722272056801   20.18469857365019    4.65392873690946
H          -9.89450501272804   17.44838860368611    5.80333484270416
H          -9.13190812212600   22.29903016524423    6.60944290788686
