116
 SCF done       -206.887045951956          0.000792735137
C          13.68493141929001    1.25482009282280   -6.34895739161705
C          13.96492682155545    1.99031149794771   -7.45780248199656
C          12.98108715432058    2.97321173905692   -7.68731430901783
C          11.96420636386442    2.94721002791382   -6.71666019146416
S          12.21800197137734    1.72837747703542   -5.54609152401126
C          11.01906720705350    3.95438188684071   -7.02037749160424
C          11.43658933257837    4.61922774473743   -8.18902016526467
C          12.69077558879563    4.01625368188376   -8.64022608421941
C          13.42031322260501    4.37510033215429   -9.73995218795829
C          13.02012634019765    5.41762491289772  -10.59824776107305
N          12.69963329743846    6.26624029597194  -11.30139552632043
C          14.61987979038734    3.72443851947413  -10.08972930047453
N          15.59640427774824    3.19832713629174  -10.38266638959590
C          10.56892828406386    5.62443848202705   -8.58232287285739
C           9.47123411145783    5.74597572804202   -7.72529684902948
S           9.54779075781585    4.58124910131851   -6.40878577659181
C           8.41564690069431    6.65334078113642   -7.87328069063448
C           7.30630125599926    6.77979525777341   -7.07171095018126
C           6.22607723821521    7.67373142745133   -7.27273537189212
C           5.22741520580338    7.56591020526862   -6.35124490793484
C           5.46740319036406    6.58684635149219   -5.36499790010158
S           7.01254229706850    5.81081327985578   -5.64126042418562
C           4.66476627890144    6.19540208720677   -4.30958828178462
C           3.36840507551789    6.63453804657045   -3.96602762814287
C           2.84090670245879    5.99592441735444   -2.88402135583777
C           3.69098657581129    5.02106107793998   -2.30223728661571
S           5.20520790699949    4.96688172054078   -3.18923867402076
C           3.37041468612712    4.19573912060121   -1.25394003470861
C           4.20346878822201    3.22666929411080   -0.66289423363056
C           5.56225517949443    3.04245911055577   -0.79177896856446
C           6.06253017771608    1.94004721617841   -0.07799551685869
C           5.04571766619066    1.26410418783531    0.65184115733622
S           3.49352155866826    2.02367498175020    0.40965786262772
C           5.28877048681090    0.13642490278237    1.41139663800259
C           4.23409612572843   -0.61902979148008    2.09682659232231
C           4.16041657906541   -2.00205421387776    1.94096586563466
C           3.20314879656888   -2.73509139277228    2.61028604587352
C           2.28204775889604   -2.11159622907315    3.44415423570637
C           2.34254128700852   -0.73048594088276    3.58112161138274
C           3.30393615885379    0.00956313495878    2.91865354963222
C           1.23622877283250   -2.91665914843092    4.15430197220783
C           6.63179392717142   -0.29325878419061    1.48448507535704
C           7.65226885847108    0.39854094386537    0.77546663623630
C           7.40066009542019    1.49370207574419   -0.02744872340826
C           8.45078864323154    2.17514179612141   -0.79634656233967
C           8.29241048432718    2.41729219198355   -2.15868928938167
C           9.26834747892436    3.08650634184122   -2.87139431307620
C          10.42511389379332    3.53529110297370   -2.24726144054080
C          10.58827279955100    3.27682461388557   -0.89109099469023
C           9.61943470172218    2.60436513113824   -0.17329736430618
C          11.48235177696566    4.27034560353233   -3.01147043265531
S           9.20801715078513   -0.34870997207284    1.03528296141626
C           8.49572247266592   -1.55760083763408    2.10122374869246
C           7.13720416914650   -1.37115316382286    2.23071591832767
C           9.33073731942715   -2.51631803644670    2.70158774446344
C           8.95408420367960   -3.59981696153720    3.45653612146142
C           9.84881147464745   -4.48433470870686    4.10981788511817
C           9.24523364235021   -5.47625069365236    4.82111785610173
C           7.83506879195756   -5.45153731086734    4.75299645324078
S           7.30203297367710   -4.11522902825097    3.75933502721735
C           6.94585122234501   -6.30703656231710    5.37904448089316
C           7.24556270445043   -7.30294167146159    6.33223526707825
C           6.14875988392412   -7.94156734046759    6.82620255615973
C           4.91924912705398   -7.51023058969856    6.27057332418834
S           5.21887359299031   -6.24297215928238    5.09378511659880
C           3.68580684343380   -7.98841854675559    6.64473833724809
C           2.43090609166344   -7.69500917379855    6.09278391461310
C           2.09471622726393   -7.05894513708112    4.89800160610972
C           0.72276810602222   -7.02036316302920    4.69336967591190
C          -0.01594284067493   -7.59698043145825    5.74307362629455
S           0.99444355694554   -8.23485359902262    6.96642301665251
C          -1.39321408281734   -7.46858278694596    5.44580767595405
C          -1.52998876939754   -6.81996678600030    4.20631810038610
C          -0.21700485446930   -6.54706349286511    3.67648851729100
C           0.09755450695685   -6.02446962449236    2.45221305229768
C          -0.88838351357705   -5.58948530278950    1.54489948690259
N          -1.68587369654561   -5.22023118301758    0.80706427769916
C           1.42723796444326   -5.91468328340640    2.00607278772163
N           2.51046253210911   -5.83816211916798    1.63438218457119
C          -2.87932372881344   -6.65894110195219    3.83164159388213
C          -3.72119291316409   -7.17010926576304    4.76866331168044
S          -2.90500915130388   -7.86947457053147    6.13475483103723
H          14.25236484514160    0.44509093971277   -5.93571218831630
H          14.83042569806166    1.83399911741071   -8.07553358654725
H          10.69468614658482    6.25241929150537   -9.44560737489312
H           8.48018139675747    7.31453425086219   -8.72772845248938
H           6.21944273434841    8.36195846497661   -8.09950337505222
H           4.33152825478185    8.16049526537457   -6.35600414798640
H           2.85648122608470    7.39218151488615   -4.53181055119817
H           1.86109667271233    6.18800700208945   -2.48346662949237
H           2.36160637252359    4.26758629250341   -0.86903004636073
H           6.19902160692212    3.70669610650499   -1.34473926606118
H           4.84670422416739   -2.50345345310455    1.27503467305996
H           3.17325357544087   -3.80587425773043    2.47763680025557
H           1.63248803556474   -0.22608315227429    4.22125119737042
H           3.34988446271483    1.07953566694722    3.05952647984458
H           1.63907654937318   -3.87813789402699    4.46838216935618
H           0.39406550779863   -3.10354949059369    3.48557117988258
H           0.86090552694902   -2.38786011130157    5.02743739935725
H           7.40543936695149    2.06478093188007   -2.66444474537249
H           9.12430003085992    3.26984307368035   -3.92647945367552
H          11.48372447360779    3.61544568328883   -0.38945615481058
H           9.75452635806267    2.43378396466104    0.88466702930700
H          11.08315118883839    4.65971349716530   -3.94445569082762
H          12.30955596791337    3.59961729595097   -3.24465232762042
H          11.87842899130730    5.09614149909035   -2.42356083919970
H           6.52100878316086   -1.96585530228395    2.87780713331040
H          10.39476095852707   -2.38477086319040    2.55213126382940
H          10.91376124638927   -4.34904179367004    4.04010433812678
H           9.77522602155023   -6.22860487956307    5.37683176931646
H           8.25371022297645   -7.50446587112980    6.64634492731842
H           6.18118651628666   -8.71634298895224    7.57173277823717
H           3.68295003106750   -8.67568140030654    7.48168384954375
H           2.83166321136312   -6.68231816952891    4.21288047884055
H          -3.21108600995174   -6.19063178954394    2.92285631295794
H          -4.79241245028881   -7.18729939528667    4.75338499865806
