99
 SCF done       -196.288206901485          0.000255044941
C           1.14940110814216   -1.88967008207559   -3.86516210259916
C           0.59718279797858   -1.05871466512982   -4.79122287072060
C           0.26755360090793    0.18941224988340   -4.22788902079790
C           0.58807899314524    0.26256062589087   -2.86693777073685
S           1.28486254781293   -1.18323346817114   -2.28758883156312
C           0.22511371349894    1.55197597783381   -2.38256136651264
C          -0.32410888751413    2.28481280405526   -3.44202996957377
C          -0.31485078306140    1.45197980590199   -4.63969045586007
C          -0.75885963046949    1.79916803234792   -5.88231385021368
C          -1.30634448548239    3.06996095056737   -6.15524322121058
N          -1.75183277418943    4.10254912855045   -6.38032352643153
C          -0.69881646074555    0.91273148571771   -6.97782656967802
N          -0.65296016240984    0.19690900041987   -7.87249936445445
C          -0.71079880673416    3.57350717983628   -3.07066612913500
C          -0.45604166699396    3.82353019174167   -1.73547408636498
S           0.26952367322794    2.44283535827949   -0.92586805925037
C          -0.70103385499955    5.02297395950601   -1.01883207737342
C          -0.41525011256302    5.29387669094038    0.30496035082308
C          -0.77496774468762    6.59472861637719    0.66232653500866
C          -1.34400070798422    7.31588957298406   -0.40121148873852
S          -1.43687403393181    6.39648560642651   -1.83756898667074
C          -1.65213578516496    8.62205000486717    0.05129653568421
C          -1.27428316357241    8.73230366171202    1.39922063003137
C          -0.71984115550962    7.45622462370775    1.83087582741754
C          -0.25105815608227    7.13768907524436    3.07151706065979
C          -0.25134298101737    8.06315966914569    4.13616252818745
N          -0.24967202568656    8.81148400387779    5.00491411659151
C           0.26118161124826    5.85824629990894    3.37255884570946
N           0.67816211646004    4.81869557922569    3.61847703569701
C          -1.51337419837726    9.99867931625083    1.93112300062682
C          -2.07524860787988   10.85510998425427    1.00031447671427
S          -2.31567417459588   10.07475334948415   -0.55827302460023
C          -2.42283157316945   12.21639451279997    1.16956010098773
S          -2.04860448842132   13.04660690710415    2.66913831356234
C          -2.70105659760506   14.49936994274653    2.02828946209855
C          -3.19187430696304   14.34233881442652    0.73065186695113
C          -3.03180696696740   13.05303358571953    0.24651965866856
C          -3.75163649022499   15.64429447447660    0.20810621028492
C          -3.00731060365640   16.10949401152088   -1.04594778068274
C          -5.25444890334185   15.52998478192284   -0.06461113462731
C          -3.47607836404053   16.55263584173222    1.38399310296916
C          -2.87076653606764   15.84317478786534    2.42587263548947
S          -2.52295108184700   16.83596638112288    3.77774391863248
C          -3.18749668343651   18.23028276690156    2.94180026551659
C          -3.65559456424318   17.89402325538330    1.67643976181442
C          -3.15923853319774   19.48722277896098    3.59137500627558
C          -3.61702319639479   20.64701630431749    3.05303608005966
C          -3.56098549941936   21.91212622536090    3.68690107452152
C          -3.05058171002942   22.26223844096006    4.92850243478021
C          -3.16911048356535   23.62642150469866    5.18025655860723
C          -3.77598134306759   24.33270099715918    4.12663753194702
S          -4.19941297459145   23.30959198408019    2.82744036639325
C          -3.84264290571321   25.70217641522695    4.47944902540044
C          -3.27855777039029   25.86610074843428    5.75674964849890
C          -2.83595701802595   24.57010480923026    6.23938654197407
C          -2.23029515746924   24.29321547352959    7.43012296126826
C          -1.95309226371226   25.29701965398162    8.38147184685842
N          -1.72675108001195   26.11138556852660    9.15646038754193
C          -1.83932354050590   22.98587935445106    7.78653347105858
N          -1.52020831763322   21.92359734925025    8.07791733894364
C          -3.29592261769680   27.19263997231049    6.19176037417710
C          -3.86545382470690   28.03621361813418    5.25835059278948
S          -4.39206645114982   27.17670685265332    3.81504873321405
C          -4.04964259117746   29.43966806913761    5.35051944034190
C          -4.60439832266994   30.28070426735929    4.40441685846237
C          -4.62270086832222   31.60835170830628    4.83483057759474
C          -4.08005754341348   31.77580447493295    6.11495181147294
S          -3.54378131448847   30.30357611547021    6.79493217438634
C          -4.14665920512649   33.15723331086907    6.45559129333805
C          -4.72939613425530   33.85321997375625    5.38963003923543
C          -5.04855686388884   32.91089361842159    4.33462951823575
C          -5.62288785643517   33.17644586408101    3.12573949299163
C          -5.99530994790794   34.48102923807858    2.73986524661292
N          -6.30030681236147   35.53918552066777    2.42004909036861
C          -5.88155788511609   32.16321003954381    2.17938639610025
N          -6.09299551074300   31.34153794635841    1.40770883146133
C          -4.83480325025598   35.23463416159947    5.64347994231596
C          -4.34021182479677   35.55165831632322    6.87143285609876
S          -3.73398831988326   34.18676841380519    7.75222950396749
H           1.49463895009057   -2.89418870235872   -4.00621512482534
H           0.43794238154289   -1.33071322138045   -5.81859275437122
H          -1.15234176400962    4.30289423607633   -3.72583241609407
H           0.03740953170156    4.57296450358294    0.96196928484482
H          -1.29472333785284   10.30238606874802    2.93908100614500
H          -3.33134986484090   12.71075940341659   -0.72810520455001
H          -3.15813488824115   15.39885541290102   -1.85466822708568
H          -1.94133268687508   16.18908541473444   -0.84524893032142
H          -3.37663949090003   17.08241598546030   -1.36020380621252
H          -5.43595028374841   14.81161046597606   -0.86010711597676
H          -5.65382743142529   16.49542989897602   -0.36494854733451
H          -5.77690539258379   15.19948230775665    0.83027162339429
H          -4.09926431866629   18.61000504197541    1.00957519686238
H          -2.72620874726151   19.49595977676526    4.58155885748664
H          -4.05495618903416   20.63840594152540    2.06496430889125
H          -2.61431967985055   21.55251764863982    5.60635578064467
H          -2.91599147307450   27.54062279115964    7.13562359202631
H          -4.97041700864043   29.92972380702426    3.45622721125874
H          -5.25041185494242   35.95475018361328    4.96265053199929
H          -4.28951015603074   36.51875929210851    7.33000113349298
