94
 SCF done       -193.777909428219          0.000465369796
C           1.15464340011376   -2.70268590453355    8.83737408338620
C           1.69195869572342   -2.58840385502545    7.59337049651969
C           2.01558207787236   -1.25042520051343    7.29105357414019
C           1.70245158018302   -0.37362580651754    8.34746668051516
S           1.02245897304582   -1.19239019498693    9.68474622341399
C           2.04904169792360    0.94287673568501    7.96577820042084
C           2.58536279923498    0.89665085032368    6.66358853013836
C           2.57691428718575   -0.49150240466529    6.20169921770368
C           3.00529468639230   -0.95511649244799    4.98724918921605
C           3.54286304862922   -0.11819744035790    3.98793591931217
N           3.98853351921228    0.54151054493946    3.16139821949705
C           2.94605826168772   -2.31978662594564    4.64439944504158
N           2.91740856847707   -3.43043972228890    4.35501211933310
C           2.95286565653962    2.13577859713786    6.17289801739946
C           2.70198336728360    3.16732241053902    7.08347632122372
S           2.00272044539973    2.53830141951878    8.58081283786069
C           2.89098889897122    4.54933454419029    6.96100327287139
C           3.38810373605501    5.22857952666759    5.86822368057812
C           3.50231209321653    6.63187516566157    5.72832958100989
C           3.97873026689880    7.04535894165744    4.51383731038763
C           4.27754571403000    5.98777929825686    3.63765093770026
S           3.94640734715121    4.45471921968507    4.40276898487945
C           4.73413799441227    5.96913320569369    2.32558089092725
C           4.97519939741573    7.00046642824941    1.40136316815203
C           5.33760104271366    6.54654377648498    0.16155537326932
C           5.40571744368403    5.13922066751232    0.05232679746632
S           5.02397562001758    4.41108119502443    1.59223413484386
C           5.66879654028278    4.39085628261775   -1.07894845702205
C           5.69865600814129    2.99789358019776   -1.15430337000169
C           5.82396868398670    2.23762013999454   -2.32958450627185
C           5.77783949734091    0.88108118756785   -2.08436133850732
C           5.64498340161869    0.57182551290158   -0.70447748239958
S           5.54803500435974    1.96638331405061    0.27092730579698
C           5.60471006401587   -0.81814517681044   -0.54339765306188
C           5.68624379313403   -1.41649834880733   -1.82967630161237
C           5.80967181426539   -0.37261592893841   -2.82836610951473
C           5.93383206997340   -0.52339491137203   -4.17961049379906
C           5.95426902373945   -1.78929887526325   -4.80160042737799
N           5.97554855035143   -2.80931397408003   -5.32516132827369
C           6.05527832825132    0.58286403302524   -5.04496184215367
N           6.15509048927273    1.48394991656171   -5.74775043411046
C           5.62480906627324   -2.79770045739900   -1.77476568315478
C           5.52002177382779   -3.26425812783332   -0.46470684222180
S           5.50904213821505   -1.96823838516628    0.72449268935668
C           5.41458529942926   -4.60604289840189   -0.04413411525837
C           5.43714034133830   -4.92766117114130    1.33925312091689
C           5.39093906558143   -6.26994925822842    1.82399217017018
N           5.26599940489853   -6.48590987544283    3.14625736367748
C           5.35212715584365   -5.47130747017019    3.95689021908427
C           5.57285479510630   -4.16155207416144    3.48462268501384
N           5.55536245277489   -3.90906920871250    2.20563412073703
C           5.39684790257083   -7.37177377896196    0.93061385555235
C           5.28359216967274   -7.05986917573217   -0.44190299557191
C           5.30361700866013   -5.70171408643987   -0.93141352610455
N           5.22508593992903   -5.65759966631669   -2.26149501668463
S           5.13682174226870   -7.15439856132212   -2.83467930080933
N           5.20445805007146   -7.94268676035588   -1.43776385486198
C           5.44760917765657   -8.71780008507849    1.36721891904657
C           6.11315372637672   -9.15515958852886    2.47990363076516
C           5.99896768024201  -10.46156027787350    3.08734117647557
C           5.01673919758799  -11.38743580641083    2.83918648735232
C           4.93028832577775  -12.63827257439880    3.48214224470884
N           4.81481581333622  -13.67169575491988    3.96985087582329
C           3.94709475797629  -11.20575434138406    1.93783506704999
N           3.03425191507330  -11.13486830092766    1.24459220906977
C           7.05523767713900  -10.58744573134032    4.08554242078186
C           7.78956004155291   -9.37763546309001    4.12005527489490
C           7.24741616454695   -8.44014815881761    3.11316523845334
O           7.73399602341763   -7.37136553482438    2.80677958765167
C           8.85703856933958   -9.18426145589460    4.96184785198635
C           9.21430743910049  -10.23331367359574    5.81591769055456
C           8.47618963897059  -11.43904021672932    5.77237717184331
C           7.39824727729620  -11.63638026679945    4.91773900742854
S           9.09411331535012  -12.60769514493805    6.90121552879568
C          10.31709699040590  -11.47398565112947    7.41029100460289
C          10.26812897711336  -10.28239477286632    6.76985165039441
Br         11.54529075634302  -11.97136869019066    8.73824993330400
H           0.81653954203882   -3.59295614291967    9.32871330666533
H           1.84403894023867   -3.42027826155434    6.93000521023440
H           3.37758355111134    2.28856446579042    5.19988251605541
H           2.59266785306385    5.15293588988975    7.80844229193851
H           3.21709737461537    7.29797355241303    6.52356267657653
H           4.11822921279258    8.07475320258952    4.23588298776147
H           4.85923631980809    8.03856606404842    1.65707314681259
H           5.54633608932573    7.18515905019286   -0.67863088794105
H           5.83790849828664    4.93001775051827   -2.00177233126523
H           5.92471046814077    2.69299303854688   -3.29838953248141
H           5.64856842567781   -3.46968791356204   -2.61350536552508
H           5.22135654650022   -5.67482558689064    5.01043094403629
H           5.72866674603284   -3.32556067106835    4.15044353349332
H           4.94755196909858   -9.43302977562756    0.72600038269484
H           9.40089931469526   -8.25254208855599    4.96165424399428
H           6.87256886272797  -12.57664247769842    4.91525571625317
H          10.94723862660395   -9.47101328202476    6.95857253082482
