126
 SCF done       -250.948722408675          0.000415982653
C          -9.18881287068172   -1.50126442026283   -2.04152201498504
C          -8.47872645528878   -1.26146470186979   -3.17798756249938
C          -7.81377730551649   -0.02148793068592   -3.11472330714280
C          -8.04748364173955    0.64890998270267   -1.90940635768610
S          -9.07108179022464   -0.23224989134030   -0.86650813424940
C          -7.33802698241501    1.88516476106928   -1.93114218911044
C          -6.65933513719359    1.98570281459451   -3.15118210103439
C          -6.93748903157701    0.79110664393198   -3.93908865447712
C          -6.47218057693450    0.50466408252119   -5.18904953348633
C          -5.62213732977033    1.38081351780752   -5.89607149226883
N          -4.92843649192196    2.08543487091665   -6.47692388811189
C          -6.81138995569018   -0.68792713927185   -5.86171121133583
N          -7.08538379479581   -1.65469733870763   -6.41421317352849
C          -5.92497487403967    3.16908774441263   -3.26907552763041
C          -6.04480180727551    3.96342125150345   -2.14795035605940
S          -7.08098266633720    3.24159948917645   -0.92716657810663
C          -5.44182761310680    5.22978142298468   -1.91266163900217
C          -5.56829896552458    6.02297353232865   -0.80877445228131
C          -4.83372521965392    7.22965597601913   -0.88827207698870
C          -4.76029695495047    8.26943189133508    0.06075797874846
C          -5.52340132295112    8.25870450803563    1.29244165157883
C          -5.12950081285072    8.69496382749190    2.52494231816613
C          -6.14939317603625    8.58861624633387    3.49508348024342
C          -7.32808414920809    8.08772667856905    3.02564911000810
S          -7.18332674277444    7.72437144233100    1.33929824015382
C          -8.59726997697072    7.84766445325204    3.75740577701252
Cl         -5.90711389567934    9.05706630580470    5.13419425194552
C          -3.91685455092095    9.33182413115777   -0.24859253533342
C          -3.17502087717652    9.41494518616549   -1.45288251352726
C          -3.28834465195792    8.39812414509240   -2.42264683994304
C          -4.10035961914236    7.31857073722900   -2.09794343691269
S          -4.38642501806665    5.93585731000162   -3.11847841750538
C          -2.60720241647015    8.50097882867241   -3.69759646414118
C          -2.48680835586785    9.60218974034572   -4.49579681536713
C          -1.75639098939851    9.34142863635579   -5.67550758547879
C          -1.31024651496670    8.05731737844365   -5.79159459256883
S          -1.80639112258983    7.13039451069160   -4.41598313042850
C          -0.52055871113364    7.44000452036967   -6.88639976466789
Cl         -1.46273562044835   10.55870175850773   -6.85957148304401
C          -2.37310695109603   10.58024583920892   -1.50313529938704
C          -2.51813477612917   11.39373940905209   -0.41481494846467
S          -3.65356058252859   10.73727840546984    0.74587387302487
C          -1.86607828441965   12.63250618970268   -0.15465453918518
C          -0.81748229283438   13.20013048423056   -0.84870483312652
C          -0.40929543027481   14.42339674025991   -0.30421336772916
C          -1.16736916998371   14.80578150564387    0.79681164238822
S          -2.36526425256154   13.62695525579900    1.18438641141432
C          -0.91787048696668   16.06585434170339    1.39105653047129
C           0.19248567982617   16.78679875116956    0.98807131859018
C           1.16044597443346   16.16770839304328    0.02275208882978
O           0.57485273656928   15.18854397191224   -0.83209795646264
C           0.28143246911604   18.03278872284467    1.61155199370724
C          -0.76012133444036   18.27540126908741    2.48161702370128
S          -1.87577012028055   16.93322478480567    2.53442385406958
C          -0.99236722636390   19.42721550550348    3.28066914617109
C          -2.10388708065485   19.70773907831729    4.02223810993834
C          -2.03282994650203   20.93862670894311    4.71462036234798
C          -3.00045476937493   21.51926131207107    5.55898981610502
C          -4.25425034334855   20.86604173620755    5.87720837605935
C          -5.48452631294708   21.44185132790335    6.01740639198183
C          -6.48393083046683   20.51429477725300    6.38277589219014
C          -6.03897661779910   19.23444819104672    6.53928665314078
S          -4.33965163777485   19.15796205685911    6.21903822881884
C          -6.80538041941020   18.01802907380270    6.90904785094765
Cl         -8.12676424245633   20.97906443950260    6.60840682275206
C          -2.68861230289203   22.76590693220458    6.09104135765737
C          -1.46190433492453   23.43255047942516    5.85412092992092
C          -0.48323127018687   22.83673627581608    5.03236111943402
C          -0.81306186196972   21.61489831023563    4.46046824185276
S           0.21380758872851   20.69210988483253    3.39616926263259
C           0.80511882191891   23.46915781318615    4.82928038537052
C           1.60051315521569   24.06592286341644    5.76430920112930
C           2.79554398783357   24.58068239331861    5.21550582873607
C           2.92351936071464   24.39364420496168    3.87013972070593
S           1.54378879012248   23.54737727385402    3.25342356962949
C           4.03396947804711   24.80616238121094    2.97537860071793
Cl          3.98017474054816   25.37568222346668    6.18049410502717
C          -1.40188626875001   24.68591950742092    6.50988437464191
C          -2.51386940479497   24.96943722660107    7.25158453597189
S          -3.70742262734793   23.69050114819731    7.15862376144992
C          -2.76979886216675   26.13260582238136    8.03279708337533
C          -1.91984700278092   27.19676593954712    8.26293872653738
C          -2.50461189580864   28.16086067452645    9.08762213432054
C          -3.80546550198693   27.82537898615783    9.48284649363886
S          -4.31218720334208   26.32660744621253    8.84536846476709
C          -4.30552618872221   28.86755351153298   10.31690490467025
C          -3.31836162964875   29.85076384628267   10.44494247749671
C          -2.15296340007546   29.44522434000742    9.68130015847360
C          -0.97243250046103   30.11596942872176    9.54560384836679
C          -0.73482484960241   31.35626617856115   10.17346694821724
N          -0.53504029785160   32.36397719126390   10.68318631784986
C           0.08996031993691   29.61250440496499    8.76645986502768
N           0.95485970861041   29.20665687584599    8.13190003021834
C          -3.73115556251124   30.92450451515087   11.25779734855286
C          -4.99779321022163   30.73732770325920   11.71987651626597
S          -5.72291008127422   29.25669144447612   11.18337492406780
H          -9.78784735226276   -2.35870461686699   -1.80898790757786
H          -8.43784276449909   -1.93954706141769   -4.01062727626667
H          -5.32937689591430    3.45222941945221   -4.11825632345324
H          -6.16560115551183    5.73719630186535    0.03766697439089
H          -4.14122260133844    9.04688588359843    2.75421718256810
H          -8.45976027004702    8.07670367447322    4.81118644704009
H          -8.90861472952142    6.80870265830422    3.65638515387586
H          -9.39423094373094    8.47649628441903    3.36091257900921
H          -2.93756553125922   10.55351805589243   -4.28134591744746
H          -0.29589917897052    8.18708314137572   -7.64353853888695
H          -1.07852653668487    6.62529526913431   -7.34678216091121
H           0.41351863600402    7.03098121741344   -6.50302117500629
H          -1.70274481461072   10.80036222140127   -2.31199397196085
H          -0.35345076162356   12.75430897828334   -1.70755307898721
H           1.98721390302775   15.69599349552224    0.58300798397536
H           1.58494098435204   16.92180328582866   -0.64524858121454
H           1.07093536146615   18.74308495014219    1.44264863089892
H          -2.95051996416441   19.04687531043203    4.05094821995217
H          -5.69182534931959   22.47930574979321    5.83266079711815
H          -7.83369822945576   18.28846611666258    7.13508951382414
H          -6.36413448766170   17.53557974462067    7.78008106867550
H          -6.80148713996264   17.29888511363340    6.09018903433602
H           1.37225334566846   24.10274192486424    6.81348399160847
H           4.76284434023839   25.38254270689624    3.53946059315891
H           3.65893712064889   25.41397029970337    2.15314953783665
H           4.52757322384859   23.93304183766865    2.54926078093887
H          -0.57380204843624   25.36220073199471    6.41223028116185
H          -0.92926031517023   27.25864938957875    7.85265190635212
H          -3.13177317184892   31.78566740440800   11.49010990179058
H          -5.56857812969961   31.38468810846356   12.35489269528283
