92
 SCF done       -170.165491262303          0.000390748532
C          -1.54772623350639   -0.47014845328113    4.68777476450920
C          -1.92304375088531    0.10830337878921    5.86171801785033
C          -1.34048764472255    1.37964224844723    6.01989504401501
C          -0.52328438257150    1.72898436760655    4.92784339860843
S          -0.50273667956416    0.52141747939695    3.71730129194711
C           0.03808420094079    2.99704120896745    5.16685648873532
C          -0.44893058253729    3.48274924973197    6.40008368837010
C          -1.34474557401326    2.47233028641839    6.96377585964510
C          -2.07478544354834    2.57098985366966    8.11577734412240
C          -2.02861514013096    3.71851692205121    8.93044847124948
N          -1.99331126163562    4.66123178618288    9.58393471463937
C          -2.95239844984385    1.54794228361947    8.52950233412192
N          -3.68457224227556    0.72318162561296    8.84360282188576
C           0.03750607431993    4.73958244030676    6.71269802423121
C           0.90378123794005    5.24086708363909    5.72854330903560
S           1.09201561169197    4.09904606934924    4.39439873427432
C           1.56396249160747    6.46963515237077    5.75142386884712
C           2.49446922817095    6.91051965172215    4.82620699612525
C           3.14030134585280    8.16192994125060    4.77764305812850
C           4.04455457527673    8.29347018125764    3.75363665465573
C           4.16872474268807    7.14263374244566    2.96270701894117
S           3.08153011237467    5.90003797331770    3.52546718446380
C           4.98747466785782    6.84624735194327    1.87360885037601
C           5.84828198985132    7.65244010602602    1.11483695932294
C           6.45557026755641    6.97706331776396    0.08713823484524
C           6.13765218207910    5.60257562987050    0.01546135769659
S           5.02151473402744    5.20259997087727    1.29410160196563
C           6.52064194078135    4.73053403496566   -0.99052517674096
C           6.25632751508899    3.35153910821984   -1.10962807350187
C           6.01021997814228    2.48398187629720   -0.00079691170995
O           6.28872301638798    2.98145340080348    1.22890189877543
C           5.97013543962582    2.21968184949213    2.37106181712075
C           5.58980794983855    1.19951945038349   -0.21695676482435
C           5.39263365593518    0.66323920180848   -1.50511380561781
C           5.82389317755034    1.46813518714513   -2.61024956121408
C           6.24244523222050    2.75635507298983   -2.39469168936630
O           5.73649021562488    0.87956018997515   -3.83443238752984
C           6.12515420402251    1.61441113605714   -4.96904167772941
C           4.80702334427564   -0.59585556058087   -1.73070762370122
C           4.10603196309913   -1.38585724681590   -0.83625905950150
C           3.51068154443241   -2.63342810749590   -1.12001272569862
C           2.79703082292657   -3.18320167102383   -0.08425328211882
C           2.79006727703353   -2.39470301372131    1.07360603976509
S           3.72172612296383   -0.94265718023657    0.81581757223421
C           2.18624310577830   -2.57427144573212    2.31675857350251
C           1.34472810129708   -3.58258414367856    2.80745447493803
C           0.91172504269730   -3.36060957690627    4.09050817723307
C           1.38619685676110   -2.16587805225890    4.66797479976151
S           2.43689460402623   -1.34891584045099    3.53450041987597
C           1.04604079362074   -1.62356674082436    5.89510678597443
C           1.47818424027121   -0.39639839598634    6.39858195981959
C           1.01508180664844    0.23730188578632    7.56270407457776
C           1.58583718621074    1.48315968297170    7.75120604210794
C           2.50597436006065    1.82509535921410    6.73566831407551
S           2.67024463911142    0.59822064654275    5.55609467654583
C           3.02738730305119    3.10221826730849    7.00963533160102
C           2.42302570927517    3.59932617939410    8.18060642218040
C           1.52271834576559    2.59643509067991    8.69883109588406
C           0.79354001827672    2.65260824232261    9.85462493965812
C           0.85203576025525    3.76701880273861   10.71606276282741
N           0.92632931381419    4.66749239804750   11.42214734580674
C          -0.02546570113126    1.58552771313266   10.27011826887659
N          -0.68562951431434    0.70843779638321   10.60499770658604
C           2.87367898937014    4.89320808375674    8.50233163860530
C           3.78057533372456    5.34707828385390    7.59384434032629
S           4.14779672418666    4.20594820453568    6.33659822406887
H          -1.83962002049203   -1.42723082413425    4.30380305675949
H          -2.57525345414224   -0.35963366895106    6.57637657102230
H          -0.20435759499484    5.29949577971311    7.59856860026186
H           1.31476032525310    7.13764700943102    6.56502328289163
H           2.92210276298761    8.93462196777312    5.49397385293471
H           4.62804892381737    9.17881200515126    3.57337060176683
H           5.99204034020805    8.69817884647857    1.32150814415010
H           7.13410978216943    7.43282833992656   -0.61306392889826
H           7.01045022729862    5.19619679166725   -1.83854012715202
H           6.17459580810415    2.87021279087839    3.21992229308835
H           6.59417005276884    1.32407510036213    2.43993508893328
H           4.91463546010555    1.93410961568692    2.38269412745746
H           5.44246417878646    0.55215517117024    0.62780546002404
H           6.51177472945073    3.38893654322860   -3.22610577713740
H           5.99110961860866    0.94153035392953   -5.81465187147423
H           7.17517193268884    1.91792669177691   -4.91107199948352
H           5.49644390835798    2.49958606478177   -5.10861568992920
H           4.85529641231420   -0.96697857251531   -2.74546501336769
H           3.61933494998492   -3.09689761491469   -2.08497594531600
H           2.28136590128068   -4.12548299288097   -0.13949435570121
H           1.06517149090192   -4.43544347882351    2.21472432149262
H           0.25345269408832   -4.02053370280953    4.62820800799799
H           0.35597727479103   -2.18345938227134    6.51198003654692
H           0.29102670166160   -0.22202584075812    8.21188985615954
H           2.54112695154857    5.46426903974197    9.34988840277447
H           4.29133814651133    6.28923294722366    7.58909194867037
