107
 SCF done       -222.698140751545          0.000706424392
C           4.35332718256970   -2.38649447755530    3.60300561032035
C           5.28389568023044   -2.83973284984663    4.49578153611537
F           6.31628994527560   -2.06175094780236    4.84543181836571
C           5.17135663628937   -4.12716817782237    5.05791355870189
F           6.09888395605501   -4.54608181108229    5.92912829784817
C           4.12886334950992   -4.94389203669151    4.71957488975577
C           3.15501485996317   -4.50599025797868    3.80139123907908
C           3.26738804781573   -3.20442476483009    3.23211247962347
C           2.30366126669244   -2.74415907726017    2.30488951342829
C           1.26324580972522   -3.56273503326559    1.95399495002736
C           1.16315018308515   -4.86285120714606    2.52427153436817
C           2.07266715698226   -5.33292251923717    3.42684931509041
C          -0.01701634163669   -5.54304540157209    1.96579795584767
O          -0.41725611597480   -6.65589862522469    2.26325080303961
C          -0.59061350281030   -4.62362244072662    0.97856057952306
C           0.14499665031704   -3.37410354989348    1.03197637402941
C          -0.16262662582872   -2.20374693563691    0.38960033927998
C          -1.28701874018228   -1.99835875641206   -0.43805971102513
N          -2.18550102902571   -1.75190381535465   -1.10920830275019
C           0.59661136553629   -1.02005741033069    0.50493148351052
N           1.17309915313336   -0.02907420883109    0.55945360031155
C          -1.57280655681269   -4.94093969884406    0.07369462124557
C          -2.30685594135619   -6.12483605467969   -0.08432632138944
C          -3.16690089202089   -6.32224539305960   -1.17299298729078
C          -3.77143593346846   -7.56267159977121   -1.15160221769203
C          -3.39980976974631   -8.32002147766481   -0.01221459762241
S          -2.28066617355710   -7.52369581853193    0.99100835968165
C          -4.04358939212190   -9.57718668699565   -0.09660186871012
C          -4.79919527104347   -9.62588890996635   -1.28189805795550
C          -4.65413424386823   -8.36195229239355   -1.98472381574476
C          -5.19655316236933   -8.03005075276521   -3.19080049510932
C          -5.96543692983672   -8.95044036439234   -3.93369387733104
N          -6.56468860510973   -9.71776601196310   -4.54029167025457
C          -4.99202371054192   -6.77042373617757   -3.79253568333682
N          -4.83644028785524   -5.74806061653361   -4.28654368553829
C          -5.44647465044752  -10.84438525075853   -1.46281425743530
C          -5.19773583294544  -11.72226924784944   -0.42085205604194
S          -4.14946370453191  -11.02789755309846    0.80324646112908
C          -5.66022795222998  -13.05891550785870   -0.32418246909535
C          -5.53925562799825  -13.95624945249768    0.72165097870367
C          -6.06700165355221  -15.20897178775375    0.39930145270965
C          -6.58381808319410  -15.25508005670241   -0.90543029221076
S          -6.45580975508383  -13.76777713895950   -1.72542468441217
C          -7.00827265706427  -16.57271084916630   -1.18581969639925
C          -6.77657771362472  -17.37511483739768   -0.05479914881506
C          -6.20047460765503  -16.53633495925101    0.98859489876184
C          -5.84751919313885  -16.91477069279879    2.25018777342142
C          -6.02274781206331  -18.23779726416966    2.70796308546170
N          -6.16549897680995  -19.31444910435087    3.07512961726559
C          -5.28766118254012  -16.00642093977391    3.17333453096397
N          -4.83193895540570  -15.26550237297902    3.91993726082778
C          -7.07941286755059  -18.71933428980892   -0.28428114273306
C          -7.50384607935026  -18.93883988535346   -1.58402189233610
S          -7.58703762741143  -17.44876086286947   -2.52035715350175
C          -7.74993908310847  -20.16361983013362   -2.27385297325012
C          -7.78563860216780  -20.17106902302848   -3.64819371990351
C          -7.87608111747688  -21.30186924355577   -4.44369612499989
C          -7.97059223864900  -22.64149328513671   -3.87254630147344
C          -8.00284498617602  -22.86970465560851   -2.53753540458133
S          -7.90489215554475  -21.63842200882994   -1.34044000362062
C          -7.94364504634925  -23.51828516918490   -4.99549324422161
C          -7.79147478772413  -22.78479913331858   -6.17884702630374
C          -7.74263962344617  -23.62087778561060   -7.31464012481639
C          -7.85071976561642  -24.93298096506234   -6.97574745652667
S          -8.01496570953564  -25.21138792447947   -5.27667228801686
C          -7.75038253402456  -21.38297215814266   -5.85260447030476
C          -7.52353586265135  -20.22855104962177   -6.61649727348870
C          -7.02534515112666  -20.08468767830682   -7.88386990220809
C          -6.63638055265499  -18.85590373007487   -8.44691643095293
C          -6.44309309519228  -17.59390865082284   -7.90728104162541
C          -5.97930412190631  -16.47584450091842   -8.71656830501567
C          -6.01824105911852  -16.37179511899614  -10.08443222630965
C          -5.54655664772998  -15.25080102035630  -10.79852797012513
N          -5.16707363364951  -14.37435072757938  -11.43580199324475
C          -6.56263646095853  -17.31985291297596  -10.97631044283652
N          -7.00637742349480  -18.01624331301530  -11.77526775096494
C          -5.51912664904407  -15.41634197690590   -7.82112801723107
C          -5.80137019755437  -15.81585395907006   -6.49609724224748
C          -6.44035625286455  -17.14313469264474   -6.50467951147955
O          -6.84978507181053  -17.69322897875476   -5.49333060708145
C          -5.48810236289068  -15.05272821901582   -5.39855768994848
C          -4.83818779184147  -13.83530984909786   -5.62037183957828
C          -4.55976349683063  -13.43718305552043   -6.94882136424962
C          -4.89714916532022  -14.20500191328245   -8.05931177098753
S          -3.72412052607446  -11.91308111736005   -6.99370332636618
C          -3.74028341966128  -11.85029145786246   -5.25389158948472
C          -4.35530228622856  -12.90092403023864   -4.66407290694080
Br         -2.89770721979168  -10.43226345256926   -4.36248413686006
H           4.45434832040046   -1.39805362068185    3.18270123211327
H           4.05697006144087   -5.92684888591726    5.15817730701632
H           2.42039081482501   -1.75632489081551    1.88976298690586
H           1.97102819644485   -6.32303900877698    3.84449302369081
H          -1.80964408900309   -4.19336667987982   -0.67426900931907
H          -3.30928911834466   -5.57467324401830   -1.93320088575549
H          -6.07247562702003  -11.09467042061501   -2.30072275040657
H          -5.07974777333361  -13.69591402760164    1.65824349884782
H          -6.96411414415393  -19.51175686802332    0.43357532155111
H          -7.66089021050504  -19.21738176317402   -4.13775242298888
H          -8.07033686956525  -23.86053983059627   -2.11667730287240
H          -7.64027998450682  -23.28055038681286   -8.32851928122265
H          -7.84497206631762  -25.78167348498193   -7.63146666380287
H          -7.69738272324520  -19.31013206660131   -6.08310255536297
H          -6.88138812450000  -20.95530061789237   -8.50954434629209
H          -6.36410510196973  -18.93304960326941   -9.49337045920726
H          -5.72565350425739  -15.38918838545716   -4.40115944377103
H          -4.65664011095138  -13.85682835461279   -9.04973907565805
H          -4.45205093130872  -13.02194950237661   -3.60078553004660
