102
 SCF done       -199.463602259115          0.007251507567
C          -0.80629075520734    3.69106249269695   -4.75477348875705
C          -1.28264580853436    3.52348644850788   -3.49054687605380
C          -2.11071570101786    4.59757140895918   -3.10962683764617
C          -2.23775571734696    5.55733253271226   -4.12037853144697
S          -1.34547562164538    5.15097366632103   -5.51348276165034
C          -3.10621523433763    6.59303886772552   -3.65854991035214
C          -3.51075433271395    6.27856461217931   -2.35623432678453
C          -2.88923609575371    5.01893433158448   -1.96166258929191
C          -3.01989597685822    4.36758505032754   -0.76611311463416
C          -3.80197777487021    4.87668253033138    0.29071676982879
N          -4.43530356514949    5.28604190361061    1.15549720279505
C          -2.39928897908912    3.13335721935924   -0.49586100584311
N          -1.90904604527951    2.12370888204334   -0.25043605981099
C          -4.40242022456720    7.21799648845455   -1.82800910393318
C          -4.68052289907408    8.23390670563498   -2.71978269507040
S          -3.79881998383457    8.04556223260986   -4.22494339849566
C          -5.59487697593284    9.33520047865817   -2.52490328015744
S          -5.01743251962262   10.89283067138310   -3.16865572983592
C          -5.64285297748710   11.99859134863713   -1.95254383187205
C          -5.02855456963978   13.16957401497869   -1.63566728832676
S          -5.89588860037381   14.05097654700180   -0.44125789698530
C          -7.08990950191460   12.81778457619834   -0.35084463201084
C          -6.83472583992001   11.79350172672083   -1.20819136503362
S          -7.90294469518168   10.40432765275135   -1.37840881376776
C          -6.78242926024418    9.14168054495469   -1.89037259377748
C          -7.19407024400086    7.79030833794681   -1.61713477775783
C          -7.80178819304369    7.29238751436453   -0.52437722874353
C          -7.74169741024095    5.88591808324186   -0.27429988120245
C          -7.78336441930749    5.25638305850283    0.93597505885539
C          -7.19697778316025    3.96470226034351    0.93044629330869
C          -6.89829422202456    3.16224539514343    2.05314998816767
C          -7.52735861291635    3.42814459816164    3.32419766441472
C          -8.80665261824359    3.87498099777727    3.51986213607969
C          -9.13175373687654    4.01625249582602    4.88361588822756
C          -8.12086507712368    3.68825231424925    5.74123882607716
S          -6.72635688443507    3.17811744129280    4.84968279692681
C          -8.11760586330662    3.71793942732775    7.22522177406328
Cl        -10.68174427810941    4.55772932802040    5.40727549534585
C          -5.95388680159859    2.16118866083205    1.84776457790620
C          -5.45440372434632    1.82057992774552    0.56513195090340
C          -5.89749202736381    2.50523262986131   -0.58813492378021
C          -6.71452120728409    3.60599241586857   -0.35134803252577
S          -7.13286192890800    4.81495537437196   -1.52832228916197
C          -5.42933067558432    2.15283061352276   -1.91312683773925
C          -5.15400736008659    2.97523331068537   -2.97116489265822
C          -4.70405030785792    2.27589427068222   -4.10926043155929
C          -4.64335001449861    0.92145325858712   -3.95748023781123
S          -5.15097656301437    0.48890858400935   -2.36138288214095
C          -4.21571017072051   -0.10990720280431   -4.93502534370117
Cl         -4.26782927801582    3.09107621031635   -5.56228920747002
C          -4.39766727176728    0.88921448954951    0.64871511647861
C          -4.05771269506419    0.54926119817578    1.92605821480413
S          -5.14435533665518    1.26029457716075    3.10146668952267
C          -2.88951128221849   -0.16297837814960    2.30716086533946
C          -2.59160267005485   -0.68801107685794    3.55501791471973
C          -1.36402066701752   -1.32557919379102    3.64979344135070
C          -0.60400365522912   -1.33039831240192    2.48649208913558
Se         -1.47957396323200   -0.38986376601280    1.11213388638560
C           0.68949463923647   -1.84199552584880    2.26351892325482
C           1.35971465180699   -2.79735380409822    2.98388477689185
C           2.80875016374428   -2.94630645392739    3.00059189051470
C           3.70842274320701   -2.46093881588434    2.08653849282790
C           3.37582135119705   -1.77590858735119    0.89746835243276
N           3.17684083808581   -1.23163420795514   -0.09468706076576
C           5.10531312996056   -2.63114595894263    2.18469763960868
N           6.24986048042348   -2.72689228522073    2.20098816139368
C           3.13607490554747   -3.71841725279326    4.19483611302814
C           1.93617970759930   -4.16988371057485    4.79148007760299
C           1.96307249327148   -4.90691237314213    5.96485280486044
C           3.19326985064390   -5.19087276124574    6.53989581787344
C           4.37303284421561   -4.76103563228055    5.94825265924832
C           4.35839989988150   -4.02517417328681    4.77165104234290
C           0.82268259902577   -3.73548615074453    3.95969576557963
C          -0.42277180367029   -4.30917450211285    3.92341384488615
C          -0.86947295960447   -5.26786560151974    4.85609103690736
N          -1.28355616084520   -6.02858234264850    5.61040336489661
C          -1.35665679007212   -4.05883196549685    2.89640763138169
N          -2.11868545965768   -3.92188648179835    2.04607003544498
H          -0.15865230625995    3.03791414740358   -5.30443010503170
H          -1.05150040461547    2.67502361002928   -2.87278253184436
H          -4.81031227911499    7.18267660285539   -0.83472414198866
H          -4.12440925934519   13.56402882530435   -2.05268586703885
H          -7.92146674242762   12.91664806687062    0.31677285497848
H          -6.84936198788725    7.07639350355529   -2.35544027497935
H          -8.16338252366757    7.92701950373707    0.27192192787079
H          -8.09853881255251    5.75125716036165    1.83625404947025
H          -9.50824223161382    4.05482562669882    2.72629745629957
H          -9.04206198718019    4.16261802563964    7.58525389727559
H          -7.27413277161004    4.29843689587720    7.59574391412120
H          -8.03272985481829    2.70892136726843    7.62814477101032
H          -5.23558658317219    4.04487371013655   -2.95291263338287
H          -3.93700407975715    0.36538956916267   -5.87258309643828
H          -5.02175137570024   -0.81863762036812   -5.12276550058703
H          -3.36186727844740   -0.66826453492899   -4.55232850855370
H          -3.84316546641308    0.51272515027400   -0.19308092523045
H          -3.28273281306693   -0.60910261601489    4.37785481303505
H          -1.00207122418795   -1.74104932899088    4.57619311311938
H           1.23234372918057   -1.36144580954861    1.45720938838327
H           1.05205077068552   -5.24201884894111    6.43509356550262
H           3.23082810714809   -5.75165965069651    7.46190209563151
H           5.31916680669400   -4.99728706576888    6.41101730702264
H           5.28471004251117   -3.69613948126254    4.32890151904975
