111
 SCF done       -206.749392392494          0.000657451534
C           1.67949746351178   -2.71944187037941    0.60484338598994
C           1.87010269307008   -2.10496587146635    1.80455976106475
C           1.50331019934783   -0.74633722752933    1.74813386486028
C           1.03809013856719   -0.37072657728557    0.48243706263926
S           1.05148803811288   -1.66976765975758   -0.62365926031605
C           0.68883556692751    1.01026501040059    0.51728264522917
C           0.93730944647734    1.49749070220193    1.80616993850815
C           1.45830498859728    0.40847147632742    2.62469937615039
C           1.82098302455800    0.47218711778059    3.93837414703726
C           1.72746314839215    1.66505542234595    4.68522398977385
N           1.65239819203151    2.63350301020353    5.29501389345487
C           2.31243370409317   -0.64921712844522    4.63884461886546
N           2.71281733417975   -1.55691287587746    5.21413656080828
C           0.62070738187061    2.84979010322808    1.94798888528862
C           0.13213158484642    3.39045612730986    0.77412555260282
S           0.06587121784025    2.21043551660637   -0.52601276083341
C          -0.30202696517837    4.72338020578024    0.55270564538055
C          -0.81347308212144    5.26913009395098   -0.60842009091915
C          -1.15440836443823    6.61373005664374   -0.44706251911692
C          -0.89610796725082    7.09033835695837    0.84663933232960
S          -0.23439407697344    5.89162291627463    1.86568318707694
C          -1.29053261229113    8.45311909717094    0.91395727214549
C          -1.79880250332745    8.83538542671954   -0.33449728390626
C          -1.72639973452514    7.69616913978564   -1.23513885823605
C          -2.11436857685310    7.64815079180071   -2.54204495830421
C          -2.66400218705743    8.76687384292761   -3.20211274921429
N          -3.11148030694781    9.67541507900052   -3.74036233298789
C          -1.99176797750278    6.47708654856572   -3.31855475863741
N          -1.89446371266920    5.52584511800452   -3.95175569327317
C          -2.22956344328436   10.16674527653007   -0.36030961958190
C          -2.05094771008898   10.79972878060907    0.85054727321259
S          -1.33191006060073    9.72677790893078    2.04534554514836
C          -2.38361969699090   12.15334405276102    1.22110065156550
C          -1.90988770631826   12.68307778522549    2.43022392730591
C          -2.24400377351958   13.96414592445741    2.78780584523583
C          -3.06208703318174   14.74964040588510    1.95693997429767
C          -3.53203013282607   14.23692103411625    0.75619294486291
C          -3.19046148034016   12.94876889507869    0.39610107873334
C          -3.25563198986484   16.03682225602298    2.58918745863935
C          -2.54729048075868   16.04852812793718    3.80423058206665
C          -1.84793957027192   14.72829364675198    4.02774206331685
C          -0.32041687892351   14.90707704965289    4.11091971337400
C           0.26201864102420   15.59895348138201    2.88434866466751
C          -2.35627699509411   14.02996619064910    5.30284497748906
C          -3.86405105778611   13.80908555598159    5.29529920676632
C          -2.55123327549202   17.15807970997378    4.61080634589705
C          -3.27674714968425   18.29569627870776    4.22260710579113
C          -3.99523532656080   18.25954592713017    3.01810668038272
C          -3.98668406911562   17.14965476439406    2.19820427055426
C          -3.31090394109320   19.50281678562384    5.01160192322336
C          -2.51995963926093   19.77649188586440    6.06980658277845
C          -2.55266810562147   20.98301806161819    6.82503119382260
C          -3.40078469640466   22.07133192145686    6.72874130876456
C          -3.08467959075269   23.06896790627186    7.65232133400433
C          -1.98442877505745   22.74086988017498    8.46046184679316
S          -1.34811065774385   21.20335098861094    8.08785311759591
C          -1.73558970675767   23.81939059278368    9.34744573124945
C          -2.68090796220917   24.82842498580398    9.10362154716644
C          -3.56321945115652   24.38976402392900    8.03419235440672
C          -4.61695669388819   25.07225240734513    7.50072352270126
C          -4.98968708583378   26.35359199064007    7.95780981143019
N          -5.29463746051698   27.39541663677097    8.32749169973301
C          -5.40309447528342   24.54129739357490    6.45702426947143
N          -6.04298863135713   24.11189215813455    5.60762412536021
C          -2.50690219558357   25.94500367429215    9.92412290114657
C          -1.43736696854879   25.79248643789318   10.78438238741745
S          -0.63461784804467   24.23976470408598   10.58251998319251
C          -0.94976210834082   26.71724770630959   11.74385092044600
C           0.13925375496248   26.56514950422684   12.58069400932132
C           0.33696421392086   27.68741360407751   13.38706370503001
C          -0.60826195164571   28.69561396029165   13.16203187166223
S          -1.74364610402983   28.26998174938989   11.95912428197787
C          -0.31466965128358   29.78968285576210   14.02614530100656
C           0.81331688593805   29.46636939148736   14.78956741755100
C           1.26423895155859   28.13866951754820   14.41870480075718
C           2.33059238394768   27.45062409264143   14.91957833144949
C           3.16930726823397   27.98587660001787   15.91945257123620
N           3.85552357571289   28.41550225764048   16.73157635289274
C           2.66670167745879   26.15674899420602   14.46966936310793
N           2.94276708413654   25.10486120998644   14.10532335725336
C           1.17734197365101   30.49958652184135   15.67479585531030
C           0.33509443082786   31.56359688801317   15.56699804995197
S          -0.92000900972181   31.34252381599882   14.39158768997257
H           1.87009813251462   -3.74341109290072    0.35327115036143
H           2.25192607024486   -2.60291228937803    2.67695421042539
H           0.73223224648198    3.42238611509726    2.85125205332953
H          -0.92956375180714    4.70378578428525   -1.51570380326479
H          -2.64124164070288   10.64881911069923   -1.22742654466920
H          -1.28154103674241   12.07686378860629    3.06756307087098
H          -4.16026365196866   14.83173099383168    0.11067615322517
H          -3.56466183492153   12.54314339101727   -0.53059836379566
H           0.14064002847264   13.92389560332670    4.22607366486588
H          -0.08520550602846   15.49197631875222    5.00255463858689
H           0.05782003158604   15.02304011406112    1.98440130232656
H           1.33949883968922   15.70197126664670    2.98969866655525
H          -0.16822759630368   16.59045814303535    2.76126214994231
H          -2.08392331732403   14.63905228661019    6.16726087271306
H          -1.84929815577400   13.06762883852412    5.39977623306358
H          -4.39141225401655   14.75744219560670    5.21906223137410
H          -4.17390520349213   13.31569890636943    6.21353260584132
H          -4.15738793446995   13.18530724740273    4.45380019974611
H          -2.01092737806990   17.15061432375491    5.54471121255393
H          -4.56037353550856   19.13277173610503    2.72521666223071
H          -4.54105221008448   17.14859503705878    1.27177419053878
H          -4.02375162683846   20.24885177771478    4.68695972363645
H          -1.77331056560596   19.06277518901675    6.38901843549156
H          -4.20815487218310   22.12876684878411    6.02277496413743
H          -3.11648842519943   26.83060906494162    9.90424622499289
H           0.74820440489924   25.67897604602740   12.58934846280306
H           2.01081744642022   30.46352458245233   16.35216976043011
H           0.36775694087603   32.48556256667269   16.11201780915908
