104
 SCF done       -218.738245891515          0.000878980771
C          -2.95088671242091    2.94304708317487    0.15161411786615
C          -3.32729456228628    3.85283284481628   -0.79612939542905
F          -3.10035450489585    5.15889437523329   -0.60356968808741
C          -3.95730005106569    3.43213697070635   -1.98471614895139
F          -4.31656661521177    4.34699992079689   -2.89536935905716
C          -4.20159224349688    2.10638768700977   -2.20949377677921
C          -3.82545204164736    1.14456493236645   -1.25189630743342
C          -3.18820387359630    1.56827310758083   -0.04959302990341
C          -2.79880462861392    0.62077684455958    0.92485141567108
C          -3.03799009518660   -0.70994572339574    0.70221532530436
C          -3.67933567216961   -1.12167361549320   -0.49760236450630
C          -4.06793207080814   -0.23172555367192   -1.45669513174277
C          -3.83446750841738   -2.58926171614486   -0.49929374899719
O          -4.36883529148951   -3.24416085089152   -1.36851074823873
C          -3.27618542097567   -3.05096507279035    0.79424408720867
C          -2.74532266081867   -1.89801165179410    1.49851928519114
C          -2.01679595831454   -1.90935349205933    2.66034902032494
C          -1.63665571698315   -3.06213238275696    3.37947422701763
N          -1.26916770225842   -3.95214663599178    4.00566845645696
C          -1.50932274910325   -0.74947102746255    3.28299054641527
N          -1.07435665993850    0.15434102026334    3.84128118840799
C          -3.37616579593181   -4.30545540499456    1.33728086769326
C          -3.74308371972522   -5.52249937483722    0.73504211805416
C          -3.84616193255047   -5.90529194248663   -0.59772790088486
C          -4.18174710613205   -7.24332623683071   -0.73419552285364
C          -4.34959238451424   -7.90685996875594    0.50496922969331
S          -4.06133487324865   -6.88147219248358    1.82806320894113
C          -4.71587824339700   -9.24808485535001    0.24880862904812
C          -4.77239389027671   -9.44081468265402   -1.14383165642933
C          -4.42718846361365   -8.19133658565672   -1.80655471997353
C          -4.33645986868385   -7.97499740395545   -3.14938478355995
C          -4.60703756890149   -8.99629082596702   -4.08533984079677
N          -4.83000632203173   -9.82587962582018   -4.84484843330160
C          -3.94392065065659   -6.73783111902113   -3.70604533973527
N          -3.60833137173535   -5.75515335331687   -4.19087573843368
C          -5.12880799899050  -10.73824771226896   -1.49871797802118
C          -5.34994526748581  -11.53690267523996   -0.38833317133938
S          -5.10699419412312  -10.67029466423577    1.11827451088531
C          -5.73697487896770  -12.89941887476130   -0.38826241400755
C          -6.00585242823689  -13.71430669944700    0.69679915124810
C          -6.37354299762230  -15.00094503135686    0.30424496067491
C          -6.37956029344751  -15.16405644943694   -1.09276716367149
S          -5.93722144449488  -13.74077404387978   -1.92159141667421
C          -6.76974777187760  -16.49123751829719   -1.39210992569240
C          -7.01551476837898  -17.17264864069084   -0.18856821154272
C          -6.77189068454721  -16.25824120691701    0.91877534506491
C          -6.89369423506994  -16.52249929386712    2.25049717462149
C          -7.29152785549163  -17.78757334355285    2.73364325136221
N          -7.61596430001116  -18.81392622043987    3.12751440779916
C          -6.62893369231608  -15.54419300806840    3.23268687319823
N          -6.41331488331953  -14.74713710097528    4.02795080864239
C          -7.41751496846736  -18.49398087077928   -0.38508972025171
C          -7.47702613138174  -18.82311955905473   -1.72745911811263
S          -7.02759123532712  -17.47542300968347   -2.76340668617896
C          -7.84801711359991  -20.06138974266946   -2.30932938237394
C          -7.87616249517025  -20.36472833916907   -3.65672403970744
C          -8.29892618595573  -21.67534605386495   -3.87703813308823
C          -8.59997352853016  -22.38006963311363   -2.68506662885964
S          -8.34740469747559  -21.40225509275157   -1.28627705222323
C          -9.00875298421951  -23.65456165915317   -3.06621926426540
C          -8.94266584476779  -23.69014356071666   -4.48738632283016
N          -8.50240309506841  -22.48146600143429   -4.96013624367238
C          -8.32604297777051  -22.11568679681002   -6.33836621274302
C          -9.32324383894708  -24.90319021728700   -5.03887088276282
C          -9.68292441059503  -25.82247949525799   -4.06229355136021
S          -9.55298347788078  -25.14920706603169   -2.42409334369119
C         -10.13907753418542  -27.14882853855761   -4.14359207685537
C         -10.28321976659797  -28.00038701133048   -5.21014251047211
C         -10.80128817710049  -29.35435059385576   -5.08152010974631
C         -11.44081584221497  -29.89983379400573   -3.99796666960511
C         -11.92788716637043  -31.22366425871203   -3.95569062282541
N         -12.34463589925347  -32.28880519416128   -3.85493929884678
C         -11.75288478857846  -29.23963944951520   -2.79015217412975
N         -12.06863172641863  -28.78612755812468   -1.78306935171623
C         -10.59098710733098  -30.03823347973350   -6.35260121645074
C         -10.04873499995463  -29.11258886094329   -7.27444975430870
C          -9.87148045144705  -27.80453457930776   -6.61644107305613
O          -9.45692573826348  -26.80138138403042   -7.16529338448083
C          -9.74778089772302  -29.44425632241756   -8.57306977720195
C          -9.98774990022117  -30.75982246212203   -8.98161085143752
C         -10.52308880349750  -31.68230160013242   -8.05140820065056
C         -10.83153622293874  -31.34367691109719   -6.73952877276587
S         -10.73453841721207  -33.25435881258137   -8.76089261964646
C         -10.11178570018770  -32.65835254956725  -10.27660424080734
C          -9.76193526433444  -31.35030749445789  -10.25498370003510
Br         -9.97992508494563  -33.81886126732622  -11.74404613755947
H          -2.46836896267051    3.28211548770183    1.05500134773214
H          -4.68424409531533    1.79968822652491   -3.12419143475224
H          -2.32436029134752    0.97507069284122    1.82548652462745
H          -4.55094579522855   -0.57526549593661   -2.35875352042459
H          -3.15732726391527   -4.39416302403796    2.39521393686567
H          -3.68591948105764   -5.22383482373645   -1.41232855435774
H          -5.23124676311497  -11.10104047788427   -2.50564123119798
H          -5.93586193556930  -13.37097487638172    1.71345692635921
H          -7.65888605111998  -19.19479373058786    0.39370069017356
H          -7.60355733730525  -19.65893233037108   -4.42033266918291
H          -8.29186329927209  -23.01878276746772   -6.94398179288786
H          -7.39085639154215  -21.56771162333689   -6.45982061170831
H          -9.15085711356511  -21.48671720356388   -6.68456709771700
H          -9.34719768305578  -25.14287415636471   -6.08533489532286
H         -10.40104283159529  -27.55993289050295   -3.17566488216440
H          -9.33894356976824  -28.71181780598803   -9.25135894067720
H         -11.23448876041668  -32.08544700586711   -6.07099449378644
H          -9.36071727430563  -30.82240798341367  -11.10071446678677
