108
 SCF done       -226.389129845131          0.000718934948
C          -1.99369037411927   -1.35396935702108   10.54270770726791
C          -1.73286237093554   -1.81344186946998   11.80333967920264
F          -1.44511059447313   -0.95228795589847   12.78756946023628
C          -1.76281903207694   -3.19423707071143   12.08419299488159
F          -1.50322143761683   -3.61613567058065   13.32877190493062
C          -2.05309768620281   -4.09708059901383   11.09981895698930
C          -2.32581592131137   -3.65455203711147    9.79101885615131
C          -2.29642440822868   -2.25876421246478    9.50559665277970
C          -2.56760759744198   -1.79016035947713    8.19911717689706
C          -2.85852411930805   -2.68950170026515    7.20775061031265
C          -2.88295329782761   -4.08132587333247    7.50330584122535
C          -2.62710410484901   -4.56489430960595    8.75381678120837
C          -3.21259209375462   -4.82587936119013    6.27772648767410
O          -3.31800619934617   -6.03693071228517    6.17486176799044
C          -3.38155434256767   -3.82610021171593    5.21980725739692
C          -3.17623392286803   -2.50841781494394    5.79203664705050
C          -3.26848761706278   -1.29816658082228    5.15544816531673
C          -3.59056736306500   -1.10106147192416    3.79590809953477
N          -3.84959484237274   -0.85455528049607    2.70456052150300
C          -3.05633635978171   -0.05522667064573    5.78941080071545
N          -2.89566469689637    0.98665107512615    6.24352974981661
C          -3.67235615541980   -4.10107255744669    3.90633534629879
C          -3.89651300117814   -5.32591270341541    3.26290904108714
C          -4.18463436145754   -5.39282260521424    1.89261459260400
C          -4.38911230752131   -6.68604776182893    1.45659150738693
C          -4.25702174156513   -7.63173608433300    2.50407706368999
S          -3.87886042262385   -6.92692722576743    4.00689689984438
C          -4.50026996217376   -8.91590391319409    1.96257292782820
C          -4.78605049395432   -8.79110318844942    0.59022962169116
C          -4.71729579309269   -7.38556851443573    0.22441267725650
C          -4.91662493552054   -6.84764817585842   -1.01239913498511
C          -5.22828664932138   -7.64790556775192   -2.13206438987276
N          -5.47956481063877   -8.30174508006340   -3.03982868152143
C          -4.82077275191433   -5.46101293005557   -1.25738266728161
N          -4.74388686613532   -4.33650628058587   -1.46515039643200
C          -5.06226662909124  -10.01123741970303   -0.02170332851160
C          -4.98814245943608  -11.06531567674989    0.87310214820442
S          -4.56406009937012  -10.53981633011988    2.49413915655054
C          -5.23872974475971  -12.43395439657099    0.60438706003415
C          -5.15630053278203  -13.50014638706193    1.48217297175663
C          -5.51416476832070  -14.70293175952124    0.87502385743365
C          -5.87149235775423  -14.54775691470627   -0.47649837401413
S          -5.75811443783421  -12.92853706430576   -1.00162308978401
C          -6.25088433354244  -15.81087132437359   -0.99335466215372
C          -6.13189400995702  -16.76726976132797    0.03096464078217
C          -5.64845130059891  -16.10640212100730    1.23357890092616
C          -5.36724404033574  -16.68286337500014    2.43683863593496
C          -5.50289796168835  -18.07092387504774    2.65297924786181
N          -5.59770247025589  -19.20077683040272    2.82128015814997
C          -4.90226818248108  -15.93050326499173    3.53627140645498
N          -4.52164723645901  -15.31619379708260    4.42624389566929
C          -6.52784650481187  -18.04200557275457   -0.36701652766631
C          -6.94531845243485  -18.06673076379726   -1.68754882792073
S          -6.83449303731473  -16.48666805619903   -2.44567709163679
C          -7.48232699164836  -19.16783567712201   -2.42171150250111
C          -7.79685063824760  -20.36718725702893   -1.83032120118167
C          -8.43282618709128  -21.42086241276294   -2.48928379881205
C          -8.81572183395809  -21.32431232920222   -3.89955089441731
C          -8.56893564526725  -20.24775996943323   -4.68043614389376
S          -7.77260408387346  -18.84525391996785   -4.12201077994470
C          -9.52955635534056  -22.52287438638255   -4.17907540427739
C          -9.62876868613618  -23.29584212583335   -3.01870810009258
C         -10.30829178606180  -24.51386558733054   -3.25500290363443
C         -10.71964411504225  -24.61295179872613   -4.54549573548114
S         -10.29440351650401  -23.25227495197609   -5.53082866141308
C          -8.95238785167089  -22.61575537705971   -1.94572803899345
C          -8.89070216584719  -23.00885484957444   -0.58328462240504
C          -9.86820426219247  -23.66526353523198    0.11170719726646
C         -11.21122187962683  -23.87150880233680   -0.27025970525041
C         -11.98354543585060  -23.19296386330801   -1.18203662025142
C         -13.16894957487449  -23.86325841570274   -1.76908148154007
O         -13.72990990343404  -24.85628371026675   -1.36909062772858
C         -13.46329717416625  -23.10183886881373   -3.01361632973203
C         -12.61619467269215  -21.98037258695930   -3.07438489049736
C         -12.62120820019311  -21.16913866402928   -4.19269406762438
C         -13.48109067862746  -21.47505457668624   -5.24576960919633
C         -14.34502180802700  -22.57777583651195   -5.16849566337110
C         -14.33472571644064  -23.40248513675966   -4.03503115805349
C         -15.20251911536059  -22.93691614195843   -6.23613379224279
N         -15.90016830975567  -23.30200546184835   -7.06844947865276
C         -13.38677458131799  -20.61919376871839   -6.46046573803346
O         -12.38762967276959  -20.02112278427017   -6.76759804124336
O         -14.51551381605546  -20.57742534627075   -7.16483330085418
C         -11.79414988805560  -21.94447829523579   -1.86873955365443
C         -11.09808841794909  -20.84604542640996   -1.42584220468595
C         -10.49714860599355  -20.74869424286631   -0.15626995620098
N         -10.00057906735299  -20.58268170138769    0.86522642655507
C         -10.94536325308171  -19.64707495968890   -2.14556497950038
N         -10.72240879823985  -18.65450509395886   -2.67977122010204
H          -1.96685129710638   -0.29373307202548   10.34500743705486
H          -2.07203138425334   -5.15067123510278   11.33071728625299
H          -2.53636151742190   -0.72811822774036    8.01881493334596
H          -2.65388572909671   -5.62629041863312    8.94826914337107
H          -3.74802150791228   -3.25441725900161    3.23477711419373
H          -4.23778392827685   -4.51271836810624    1.27617069758676
H          -5.30948723850245  -10.14473051592317   -1.05958095459766
H          -4.85551305571913  -13.38737109836404    2.50836580470600
H          -6.51763084766685  -18.90438158705346    0.27276685664697
H          -7.59649843033681  -20.47896714661161   -0.77508040565726
H          -8.88789677997755  -20.19256820568782   -5.70955904044038
H         -10.47636224045600  -25.27964612522671   -2.52032524739868
H         -11.25866723601149  -25.42151554973677   -4.99914649142026
H          -7.97552004450840  -22.77095546580930   -0.05510752664557
H          -9.59601135857851  -24.07477824260495    1.07615355209275
H         -11.71757694047079  -24.71042122470729    0.19868946900648
H         -11.96243174268757  -20.32101077888512   -4.29589420460628
H         -14.98222580531087  -24.26426463774991   -3.97576317441628
H         -14.41305303314721  -20.02580765636884   -7.95690337218941
