111
 SCF done       -219.702553440756          0.000959646408
C          -1.99344756675842   -3.12676686227713   -0.42461221795907
C          -2.60915547670873   -2.69244574784442   -1.55899735127442
C          -2.57315397912261   -1.28813551537977   -1.65525762090451
C          -1.91867597291572   -0.69519137985975   -0.56992581344540
S          -1.35496036393791   -1.84826227428912    0.55476077067790
C          -1.93131790847827    0.71879411866159   -0.74833037975783
C          -2.59404852958211    1.00881586974238   -1.94782601338530
C          -3.02136188280432   -0.24365459132688   -2.55899117041149
C          -3.70184665623706   -0.39446244388555   -3.73140969964032
C          -4.08378733499058    0.70711793432338   -4.52596550057973
N          -4.39756609513042    1.59833180756283   -5.17531587253036
C          -4.06956001617883   -1.66241664149339   -4.22902649029443
N          -4.37154377890443   -2.69090911199811   -4.63635260505440
C          -2.66465369157793    2.37855638628509   -2.21212463889146
C          -2.06289486368365    3.12613493045915   -1.22057196899209
S          -1.39421366993579    2.12332450066611    0.05762234994843
C          -1.95724615283218    4.54151756513991   -1.14686787755186
C          -1.39731957889094    5.28651630389021   -0.14688821430527
C          -1.47258447337222    6.67994850587526   -0.36738090441436
C          -0.99160833703535    7.71726246886992    0.45919960864393
C          -0.24704355941559    7.46012513937786    1.67551156888281
C          -0.32041691240287    8.13031095533449    2.86287764395657
C           0.59255697452813    7.64367546050985    3.82347786909903
C           1.37820424982103    6.61656313548592    3.38833702494578
S           0.98032372955224    6.22242998428208    1.75061514356453
C           2.43356542150674    5.87396517314035    4.12191255437644
Cl          0.69298259114960    8.30525966164803    5.40999195487119
C          -1.26334154859478    9.01547248586638    0.04350399243744
C          -1.94908878529621    9.32297211672696   -1.16153143687309
C          -2.36804259549310    8.28243576584749   -2.02306597396913
C          -2.14548458816288    6.98597726063057   -1.57836776345063
S          -2.61258606532438    5.53723232900270   -2.42758848160022
C          -2.97033392617654    8.57395750757137   -3.30550117872092
C          -2.60995337807512    9.54673426284875   -4.19620914895885
C          -3.40309704760822    9.53748977603400   -5.36266830955674
C          -4.37264073857084    8.57539550150143   -5.37801891318626
S          -4.30761642751747    7.64213234760872   -3.92278696080193
C          -5.37841367601037    8.28455024077787   -6.42940871634453
Cl         -3.15325725847258   10.65252906398104   -6.65122406478012
C          -2.14604252870755   10.70942987829376   -1.31772121916524
C          -1.59850633189696   11.46622600354110   -0.31029992031645
S          -0.80841597317741   10.46394327052985    0.89139383319784
C          -1.64617521231849   12.87304697863257   -0.14864652595764
C          -2.33832951606976   13.78767479175888   -0.90920177491283
C          -2.14959037573052   15.08480121959208   -0.35388551234782
C          -1.25474757600277   14.88702801934849    0.79489838293600
C          -0.95734185163120   13.58772001477082    0.93002539964096
F          -0.82400534213029   15.88537353176869    1.57285261307702
C          -2.72222446676084   16.27355430252858   -0.74295571158090
C          -2.59492532004961   17.55460783433596   -0.13204494010059
C          -3.41293211038052   18.45355450787569   -0.78595410281184
C          -4.08201395257904   17.74811175435632   -1.88304765794185
C          -3.66241050888235   16.47409270054093   -1.84863457681185
F          -4.03053960755502   15.49604777348256   -2.68476086693758
C          -3.58895375346166   19.80715570266591   -0.41769996470946
C          -4.49426514241867   20.65346460671624   -0.97826938567910
C          -4.72575895533624   21.99982850715385   -0.57701196616869
C          -3.96990986985174   22.73403954974577    0.33124889515431
C          -4.28958070949418   24.03506073528641    0.71296876656052
C          -5.42514592036295   24.71399165767727    0.28160264241323
C          -6.20076901764784   24.02623501053091   -0.69196276815037
C          -5.83800612278627   22.70139862086631   -1.12678739276978
N          -6.70147739860590   22.34506168062182   -2.05366560899240
O          -7.53953850799491   23.36381869384047   -2.20023816741185
N          -7.25961064066236   24.38825073148490   -1.38938263583212
C          -5.70236914155384   26.03438961188431    0.74729432539304
C          -6.89393352634051   26.69252465597347    0.79558105387027
C          -7.02269240425878   28.14470804137933    0.92427873338227
C          -6.07347992300966   29.02602633319718    1.36386019005499
C          -6.27320620596152   30.42077763830970    1.45909621702727
N          -6.36642707263409   31.55964892778468    1.56555077571507
C          -4.78637179477440   28.68191793122458    1.83038554745274
N          -3.72807288419688   28.48031378829986    2.22814202935106
C          -8.37424881864873   28.48291680550065    0.50091641427829
C          -9.10102766395295   27.28799440173698    0.29544096227153
C         -10.41762854763463   27.32622116471766   -0.13205713194825
C         -11.00691801392000   28.56284582758747   -0.34824364796125
C         -10.29898324589087   29.73782354797579   -0.13672709547802
C          -8.97900407458325   29.71218184063328    0.28780528216903
C          -8.24277279300812   26.16334907421275    0.62787672343721
C          -8.67068854436425   24.91106031730362    0.97031341516884
C          -7.84766891881645   23.92143170393958    1.54542560448164
N          -7.22873878656693   23.09228182236115    2.04306335998180
C         -10.01177080515531   24.48255744677438    0.87327762843844
N         -11.08206567085282   24.07372731678764    0.81323927762348
H          -1.86982884637441   -4.13727756442440   -0.09022180926062
H          -3.06215302281074   -3.34734301473745   -2.28054957024023
H          -3.12874440992093    2.82516503976818   -3.07307378928327
H          -0.96071174921397    4.83859129215779    0.72694520236516
H          -1.02059956555278    8.91752107182695    3.07079786090391
H           2.55273667840047    6.29632020050600    5.11641694138881
H           3.38445566001588    5.93501173654104    3.59387482193235
H           2.16880910509957    4.82087245605423    4.21453378158626
H          -1.78036185321234   10.21480724637316   -4.05626221794754
H          -5.21911012054994    8.94056070133333   -7.28144957601632
H          -6.38771766676316    8.43908286972376   -6.04867564327428
H          -5.29991124833720    7.24877321276117   -6.75715926663341
H          -2.69561303906609   11.14332830401155   -2.13165814893052
H          -2.94698118138677   13.57307711024348   -1.76433716563822
H          -0.33454616616063   13.12456864906243    1.67028824077199
H          -1.97926834293073   17.77175028627408    0.71875222418417
H          -4.77054129041605   18.18134003591915   -2.58072266643109
H          -2.96864584151464   20.14816545765504    0.40054114177179
H          -5.14362409561706   20.29849597383042   -1.76555834625202
H          -3.09131136327432   22.28498791719049    0.76674537797873
H          -3.64682973059794   24.53065239284941    1.42632560286103
H          -4.82101884222683   26.58400662723778    1.05156095950445
H         -10.97227105209271   26.41930993663307   -0.30924622674388
H         -12.03038070728075   28.60973160475407   -0.68758039546647
H         -10.77917239544374   30.68898133712300   -0.30887496280108
H          -8.44311349476174   30.63471885182028    0.43927293644936
