124
 SCF done       -248.388620472711          0.000836034446
C           3.07122777008139   -2.63168695757482   -0.42190309618135
C           3.83642537210698   -2.04033699131835    0.53673340711454
C           3.58254171340738   -0.65740118771371    0.61345590965939
C           2.61528648907993   -0.24012649663003   -0.30722204867410
S           2.02475559688761   -1.53033429231279   -1.25525757867590
C           2.42152816246663    1.16416433810935   -0.15876833104692
C           3.27019267848841    1.62435041320322    0.85587412444593
C           4.02933130977830    0.49424955877762    1.37682227842157
C           4.95913737086195    0.51974654331300    2.37434300458192
C           5.30922080914710    1.70992683655043    3.04637373854637
N           5.59849030704987    2.67309339140443    3.59722189042426
C           5.63195424520727   -0.64359477239175    2.80369443536736
N           6.18563290568539   -1.58429038308247    3.15486876629664
C           3.15163887846347    2.99786793526696    1.08202643195023
C           2.22004492186540    3.57882968565226    0.24646036340784
S           1.47760192172123    2.41293845104048   -0.83759319429329
C           1.82717074198837    4.94429987460707    0.20338143117765
C           0.90474965766019    5.52197884849802   -0.62282364666816
C           0.72699614666653    6.90517808930865   -0.39508512119102
C          -0.16848212494054    7.77971607087935   -1.04572760407521
C          -1.10362716321955    7.33202043478220   -2.05795285028428
C          -1.47999785462184    7.98598570878974   -3.19595609166313
C          -2.46056396860620    7.28555853469059   -3.93144385573418
C          -2.85485370292502    6.10670407319249   -3.36943967916163
S          -1.98993832794099    5.83818280302804   -1.89439321023196
C          -3.85905948632559    5.12906901122277   -3.85869053709933
Cl         -3.09550536915151    7.88461177609052   -5.41569385991964
C          -0.13035548026461    9.11003975754062   -0.64548652397415
C           0.73847787839369    9.59730119993297    0.36653936959620
C           1.60686669802524    8.71261708101891    1.04944108902794
C           1.58538948119308    7.38801942504831    0.62624791415156
S           2.54625471693958    6.09935689031932    1.30234384382945
C           2.43365080949090    9.16414669246649    2.14727501027335
C           2.14622445767351   10.09942064696159    3.10362094838159
C           3.19173538464792   10.27376054093803    4.03380337871666
C           4.27935667569068    9.47580390942513    3.81640882102310
S           4.02114392867389    8.49045027640067    2.41842856951759
C           5.52312215168389    9.35401771718407    4.61601024476820
Cl          3.09423639723511   11.40955700517752    5.32421514698070
C           0.58228957594351   10.98283541825620    0.56856877920526
C          -0.41123091870240   11.54799863927392   -0.18830383129549
S          -1.16034853328552   10.37329696933377   -1.25699157129013
C          -0.88888823664678   12.88041496516762   -0.12813831689336
C          -1.99231979989466   13.40661259740252   -0.94208393088938
N          -2.34166643951095   14.62297776563919   -0.65380184782292
C          -1.51543534778984   15.00670589871617    0.36431624000910
C          -0.56044471488086   13.93684535772803    0.69794845816868
C           0.28675714732768   14.36724084093485    1.78118280804964
S           1.55175595247547   13.56645696498523    2.46803646286089
C          -0.20997941965518   15.67361705923410    2.13334795357615
C          -1.31441912229515   16.04297406518052    1.23706818905623
N          -1.82967160774164   17.26113345312044    1.58134723221191
C          -1.15100289799156   17.64578047614330    2.61902266681064
C          -0.10876347560914   16.70131486190859    3.04709767485525
C           0.75198209093999   16.88219872383026    4.15962871231959
C           0.68807602538425   17.87096701262536    5.11332662249159
C           1.69101739525930   17.77078733242573    6.09914556062821
C           1.90458907705916   18.59457121285201    7.22924312895891
C           0.97732945132503   19.65366945759679    7.56617515529295
C          -0.38754503496482   19.62124102421285    7.51097075992888
C          -0.97771414191741   20.83781309187689    7.91460227993639
C          -0.08493865674966   21.80723431171067    8.27065894847325
S           1.53213007991375   21.20914812180273    8.12316779845928
C          -0.35354988264927   23.18783263078611    8.74506038542064
Cl         -2.68508170068266   21.06743311003989    7.94712781268259
C           3.03136805514408   18.31739046790065    7.99099546696559
C           3.92008053305141   17.24449907892489    7.71908787071723
C           3.67664652009579   16.39044851557748    6.62631614114366
C           2.57378061202339   16.69263124621676    5.83701554451975
S           2.08174427177942   15.78492109020227    4.44342499611175
C           4.52986029161304   15.25785710220728    6.32531635502213
C           5.04629513576986   14.32479829874822    7.17800908886139
C           5.81632207062431   13.34820942511475    6.50935218499256
C           5.91172589328677   13.53088639814895    5.16007851266277
S           5.01338140832920   14.92719747589982    4.68440160057816
C           6.63162459655394   12.71440303855227    4.15133144190170
Cl          6.56702996134812   12.03977467104497    7.34143035258575
C           4.99790606214371   17.20088240648481    8.63284840374703
C           4.94007442655589   18.17321565794735    9.59319415847368
S           3.53382994670983   19.20026583594640    9.40700388520311
C           5.86532808047345   18.41223089415173   10.64819913342653
C           7.02163654984709   17.71042753522533   10.93064962393175
C           7.68872091675725   18.23207305175302   12.04091098232092
C           7.03297109788343   19.33494741053278   12.60381760411554
S           5.59911182458588   19.73341834104598   11.77136039661359
C           7.79315950098289   19.78859631028151   13.72071753661102
C           8.92184584658329   18.97248606053212   13.85519001761625
C           8.89971498680606   17.96735330285572   12.80826537155433
C           9.81646763699744   16.98289467921037   12.58075365084335
C          10.96155061431538   16.81980096820987   13.38827986688013
N          11.89608496572367   16.68633501628197   14.03905267006314
C           9.67923064912155   16.06376859265999   11.51940074028699
N           9.56837203862792   15.31744012190724   10.65593156924742
C           9.73435369455898   19.35329045918139   14.94058544709142
C           9.21517730948218   20.42907746875190   15.59397467435629
S           7.73065877381722   21.00815121159528   14.91258522591833
H           3.05129726529119   -3.66592031489736   -0.70148987837103
H           4.54070993186369   -2.57156236014879    1.15034641909006
H           3.70519309367762    3.56098781583959    1.81174944997998
H           0.37709888215324    4.96347372836396   -1.37409943342998
H          -1.05469135898596    8.91466402332402   -3.52780329901488
H          -4.22233705428569    5.43679204607908   -4.83597634326825
H          -4.70344913468237    5.06970361165014   -3.17201252318630
H          -3.42102401498909    4.13491330410368   -3.93775406216947
H           1.21008225764932   10.61807722238748    3.18535214426267
H           5.53614152236171   10.11176999718661    5.39489605282215
H           6.40326488892708    9.46611447134854    3.98478133999918
H           5.57417336287955    8.37035547980702    5.08314037041298
H           1.18670481337889   11.56771494273942    1.23622874970514
H          -2.49035196314340   12.85462434006168   -1.72069759668183
H          -1.36018831375751   18.59143817626612    3.08672523846650
H          -0.04796538119077   18.65308591750974    5.09622678249025
H          -0.95867037276955   18.75221104282922    7.24114760713794
H          -1.37250656603274   23.47229889989432    8.49341848165057
H           0.33998082348157   23.89148633463513    8.28912496458578
H          -0.23358303656874   23.24987553346212    9.82733696216363
H           4.85144391282933   14.30018375347181    8.23457849044708
H           7.21259898879599   13.35379877266147    3.48900646093987
H           5.92072006648913   12.15688755525822    3.54113022025253
H           7.29795626130520   12.01476592747101    4.64941318708311
H           5.79659699619474   16.48657932122666    8.56334684699334
H           7.35429910069584   16.86734754182347   10.35450688539214
H          10.64832365890923   18.86535547154698   15.22586356956071
H           9.61478813590504   20.93293150695618   16.45108537973529
