96
 SCF done       -192.224355278193          0.000790617536
C          -2.12702109886851    3.41158274984298   -1.19264768106075
C          -2.25504402488876    4.29757716474208   -2.22517364608279
F          -1.90636680867238    5.58093495032671   -2.05857303212893
C          -2.75338684297784    3.87672172664498   -3.47426404726016
F          -2.86862171553332    4.76838683988285   -4.46860373806956
C          -3.11714834228530    2.57454045698458   -3.67379206453074
C          -2.99752953799792    1.63768360475094   -2.62911672249160
C          -2.49284208377800    2.06144231656607   -1.36571056691904
C          -2.36013078955746    1.13838578034740   -0.30289494564688
C          -2.72048327420412   -0.16903341013814   -0.49835187653541
C          -3.22946641221505   -0.57940772290009   -1.75991437174943
C          -3.36943946500959    0.28641680266129   -2.80530907643296
C          -3.55769350100517   -2.01813044114132   -1.71689820668855
O          -4.03528163400432   -2.65898080209106   -2.62950711432991
C          -3.23867729823137   -2.46122163206613   -0.34124543497162
C          -2.68759034938426   -1.33199464806616    0.38498212515005
C          -2.15068337228865   -1.33965510053584    1.64802665193868
C          -2.02349099182310   -2.46341377081233    2.49096632350060
N          -1.86247645333502   -3.32549520800871    3.23323122544239
C          -1.60701197525429   -0.20158452946828    2.27988843910931
N          -1.15472971868802    0.68397932532473    2.85389298845923
C          -3.50453592104413   -3.68020230710004    0.23148132160807
C          -3.91256482668771   -4.89660205943233   -0.33819516693766
C          -4.02431494760788   -5.33215592646219   -1.65542862289399
C          -4.39525982858933   -6.66411367867548   -1.73925400684721
C          -4.58465520186072   -7.27298620645533   -0.47298430897140
S          -4.28729827826177   -6.20006756353806    0.80900615144185
C          -4.95873492069622   -8.61812919190972   -0.67409221041682
C          -5.00235875191951   -8.87380579356653   -2.05736488978882
C          -4.64726800509007   -7.65462632688801   -2.77085818503940
C          -4.55458715886185   -7.49721511988476   -4.12195313578916
C          -4.83350037662188   -8.55345568049220   -5.01586998270008
N          -5.06372752052883   -9.40819986952050   -5.74498985704253
C          -4.15794454346888   -6.28926575221569   -4.73655202929199
N          -3.82110101456148   -5.33330735257524   -5.27129580433369
C          -5.34211345249608  -10.18950399025118   -2.35644875227240
C          -5.56208389435239  -10.94211887833647   -1.21362551878818
S          -5.34756656030052  -10.00483700365002    0.25450832328968
C          -5.90462101412198  -12.31422090512210   -1.15115567553776
C          -6.15911088854020  -13.07849191290712   -0.03019512295715
C          -6.44738837191895  -14.40167187541384   -0.35824457273649
C          -6.41164661424112  -14.66192276869975   -1.73546141271411
S          -6.02501309015324  -13.24687072040489   -2.63787805433634
C          -6.69343890023477  -15.99647879396965   -2.03044228212254
C          -6.94850845004856  -16.75510773080621   -0.88188627802482
S          -6.83929769395719  -15.81613150517276    0.58090012377378
C          -7.23031397332658  -18.09650222961449   -1.14472167644134
C          -7.18924814167898  -18.37580801057192   -2.49421381102776
S          -6.80006741994732  -16.95960380469571   -3.45810653109210
C          -7.41789034715857  -19.61821230658569   -3.13853436006224
C          -7.33740631110259  -19.89327633361335   -4.49044687063569
C          -7.62553854278984  -21.21885450287622   -4.81355713106089
C          -7.93455886837004  -21.96330126379886   -3.67022872783662
S          -7.86350081145408  -21.03938776604866   -2.22259707565643
C          -8.25678774223855  -23.32739453398644   -3.88801937158324
C          -8.21974670521240  -23.74461427224135   -5.22365382636893
Si         -7.72824212814060  -22.31689404817327   -6.33109483639003
C          -9.07750626716353  -21.79087650369402   -7.51834216867990
C          -6.07554274912216  -22.56815902830681   -7.17310670778959
C          -8.54770003432979  -25.09647155805906   -5.34191337781737
C          -8.83021980319555  -25.70062481307368   -4.13488260521173
S          -8.68922918890410  -24.58305971146196   -2.80017582700573
C          -9.22895064729068  -27.01990200346073   -3.77054753280067
N          -9.46958649775561  -27.33325724989263   -2.52326746467420
C          -9.88322194803857  -28.62438239870295   -2.50199299966863
C          -9.93530782648648  -29.12139793613553   -3.76374939873892
N          -9.51207019584137  -28.10189877096881   -4.60848783831489
C          -9.31707681857817  -28.24546059273820   -5.97696801489589
O          -8.41604865481943  -27.74414900367515   -6.59224426057373
N         -10.27414454638250  -29.04949556825772   -6.59804851901216
C         -11.58399580701229  -29.29890701760964   -6.24227826044052
N         -12.20093341379539  -29.99231876075452   -7.13648296915126
C         -11.29418529737161  -30.23010143761913   -8.13410285428349
C         -10.10842883617982  -29.64395250937097   -7.83599662445805
H          -1.74221604094613    3.75025871168720   -0.24335745241169
H          -3.49681588876546    2.26714045941087   -4.63558515587831
H          -1.97919972321871    1.49388416504935    0.64050946282883
H          -3.75661110074840   -0.05732079452458   -3.75240450474449
H          -3.38269427924229   -3.73556685371608    1.30700810827017
H          -3.84473766983199   -4.68330362114008   -2.49345417020160
H          -5.43008993936093  -10.60197192568970   -3.34537776062838
H          -6.13405866714987  -12.68633837215116    0.97017979841611
H          -7.45179626545691  -18.83572649454609   -0.39721999088516
H          -7.07400040835058  -19.13905513828953   -5.21131645841298
H         -10.02942533896908  -21.62873428060608   -7.01644605485625
H          -9.24583528156321  -22.53998537216159   -8.28910777240553
H          -8.82368802285999  -20.86402584891678   -8.02876125656010
H          -5.29409561594456  -22.85013735654920   -6.47004343826557
H          -5.73959136584311  -21.66646179599217   -7.68121360995475
H          -6.12734225575882  -23.35447504323333   -7.92338615288200
H          -8.55664007944868  -25.61404675712732   -6.28220840628597
H         -10.12013591429571  -29.11022179302777   -1.57733003779750
H         -10.17326161008180  -30.09757332024794   -4.13189822990231
H         -12.02832704753273  -28.92094154902550   -5.34350539376462
H         -11.56811631251712  -30.80376165700110   -8.99566307094163
H          -9.17165573234136  -29.59383696563678   -8.34975209031903
