92
 SCF done       -181.518280568207          0.000624323112
C          -1.94879809734252   -1.51882865621817   -5.18254697308621
C          -3.06351952243492   -0.79982139423762   -5.48714535362923
C          -3.03472408426109    0.47175070585350   -4.88165335506975
C          -1.87551347201971    0.67683345383490   -4.12402729830551
S          -0.83499487933752   -0.67486470035873   -4.15500843970604
C          -1.93040938052863    1.98021096264183   -3.55094085934575
C          -3.12625965346884    2.58873165476002   -3.94989256788440
C          -3.86032937491147    1.66117890087662   -4.80364027915210
C          -5.06632387364359    1.87922055184469   -5.40385329602618
C          -5.77193431431861    3.09102105479754   -5.25380261446746
N          -6.34944155520556    4.07502077256742   -5.13618217492748
C          -5.68766516871826    0.91031106468767   -6.21886955439464
N          -6.19932836080573    0.12749378872094   -6.88276053201572
C          -3.27887401070952    3.87869450248605   -3.43799226883463
C          -2.20354869061746    4.25306989254750   -2.65503643869524
S          -0.98633970915425    2.99106113899879   -2.54755373550700
C          -2.01365957927368    5.48832190568066   -1.98289473108893
C          -0.92599401031510    5.89262502064002   -1.23474414918883
C          -1.08796640757805    7.18557581846290   -0.73282268838782
C          -2.31329103816090    7.76379442213385   -1.09874301359423
S          -3.26375597084934    6.72479197516373   -2.06255298568099
C          -2.38498584932283    9.06796465660088   -0.53849361282686
C          -1.19631738803607    9.31747837410408    0.15704914075077
C          -0.34666463512001    8.14094869080417    0.07607292727375
C           0.87059767860863    7.96105435555228    0.66399325634483
C           1.49762197185263    8.95926026640442    1.43653474574171
N           2.02441684699273    9.75811618503709    2.07025955116207
C           1.59279156750206    6.75473338989366    0.54834207975533
N           2.19182562106607    5.78186439070208    0.45142508761208
C          -1.16784393494178   10.58460355012189    0.74920590042099
C          -2.33405836412882   11.28806270691447    0.53905403223877
S          -3.47189305406807   10.38499574492954   -0.44997881668908
C          -2.66999082691415   12.57458186329159    1.07628820902000
C          -3.47169148316908   13.55243658550809    0.52103197597492
C          -4.25235682013108   13.56372589040665   -0.74224181760981
N          -3.44732790998123   14.62282543806579    1.36293221286392
C          -2.65860845699420   14.37847674257229    2.44729573733884
C          -2.50236486723289   15.37903546954085    3.53404182200812
C          -2.15293855236649   13.09939250710662    2.31517000000429
C          -1.33507288441411   12.33171769623079    3.20722629864806
C          -0.39361011864551   12.78416914103198    4.05795419980469
C           0.47127422841705   11.90619188766583    4.77750387533825
C           0.58440691595268   10.53145574696863    4.67195952153147
C           1.63127997080532   10.02687604119567    5.44089982374564
C           2.31305545803478   11.01899088191448    6.16099969255689
S           1.67009778823039   12.57451819907747    5.87198408339665
C           3.36173691071869   10.40331838839313    6.89187235686411
C           3.34905122404138    9.02446565506414    6.62160202163934
C           2.26951520628627    8.74407306645639    5.68971178720728
C           1.94819894905376    7.54052783839134    5.13178284622135
C           2.65352541692638    6.35934246755384    5.44459175068147
N           3.21747025055175    5.39550343056733    5.70500945542626
C           0.90385190722058    7.39350274358055    4.19873288526316
N           0.06195052403845    7.26257139825394    3.42924000147558
C           4.36107613909332    8.33112200708431    7.28864205480435
C           5.13805671396502    9.16839001511605    8.06433827436889
S           4.61086563825297   10.84551193893352    7.96710142761600
C           6.25226371888489    8.82478542789359    8.87253226425368
C           7.01508609411814    9.66755494784430    9.65850340357557
C           8.04036530650762    8.98266343632424   10.31338799955478
C           8.05660599222705    7.61349267391372   10.02182527782601
S           6.81047019031975    7.16040595159250    8.94417390718978
C           9.13546701185236    7.01408135615405   10.73316064881706
C           9.79232045849215    8.00689249130452   11.46993093977130
C           9.13069553536490    9.27593500814460   11.23739063974181
C           9.44984348382857   10.49136829665158   11.76938072302215
C          10.52703671192203   10.66193581241235   12.66363255709783
N          11.40043492345271   10.80788858147749   13.39251624845851
C           8.72173994565983   11.65987126344639   11.46381393961444
N           8.13288468541971   12.61304876141484   11.21841388269976
C          10.88115098145255    7.49885078559078   12.20529137453969
C          11.02519232491282    6.15889953856073   12.01534081494714
S           9.84614349446103    5.47701910045598   10.94136270788952
H          -1.69953545733201   -2.51162144614661   -5.49925890890914
H          -3.85855059383500   -1.16547066159916   -6.11098006386125
H          -4.12046699003234    4.52322748444402   -3.61826645735164
H          -0.06577245185955    5.26831202223789   -1.07157197127458
H          -0.32285069141381   10.99138890936146    1.27297547460068
H          -5.21852332723068   13.07556112833300   -0.60578780908136
H          -3.71860401030048   13.02731420122156   -1.52405809900308
H          -4.42712921528341   14.58551563039348   -1.07314089054160
H          -3.94996584018512   15.48188463310604    1.20580903883271
H          -3.37446266562361   16.02899553951547    3.58151006424686
H          -1.62244639618643   16.00254137842020    3.36791483494060
H          -2.38593455580413   14.87598556961964    4.49101109262004
H          -1.48261455134836   11.26344739696198    3.13148174145371
H          -0.20612149409963   13.84191316806468    4.16759874020876
H          -0.04934490242741    9.92899925102058    4.04965098442498
H           4.53481819754681    7.27201009781132    7.22121394533732
H           6.82172564766357   10.72221744059929    9.73897565413523
H          11.52247973083367    8.08498352970533   12.83774866190361
H          11.76197807692972    5.50928310804260   12.44338515665619
