92
 SCF done       -171.730666070525          0.000631088147
C          -2.17749915936755    2.61068163156338  -11.21901398896069
C          -1.19769418596023    2.25577865006763  -10.34644845288715
C          -1.14265266910615    3.12982128052394   -9.24249233287722
C          -2.11759970403605    4.15191929213829   -9.32010283402688
S          -3.07498542434089    4.02063176006634  -10.73585423315991
C          -1.99671949254032    4.98272263416062   -8.19665011980226
C          -0.93569630636046    4.49044043146734   -7.39417321175621
C          -0.37737822171922    3.30345703972108   -8.04150687379235
C           0.66246896043565    2.53551848585735   -7.57922709178229
C           1.33232672621310    2.81735177182171   -6.37506365660376
N           1.88666042645075    3.03567746585302   -5.39296656441510
C           1.12668915007681    1.40782259773419   -8.28117667166489
N           1.50985865447820    0.48413573360375   -8.84548427932523
C          -0.70509148269732    5.23783102030450   -6.26308012532699
C          -1.57705054838441    6.33570728679494   -6.15550372923539
S          -2.71104797300323    6.38641851616878   -7.51917831658746
C          -1.63948820777553    7.34220370546294   -5.20361225911709
C          -0.80972215699347    7.53903081172167   -4.10348777198997
C          -0.85922601414936    8.63900403042837   -3.23546468840145
C           0.12564464401819    8.64295631242816   -2.27085477315196
C           0.97158007900493    7.53772339033984   -2.33678612638915
S           0.49924544966990    6.47886129827454   -3.63274399362234
C           2.12134252109476    7.24988960124686   -1.57530747606888
C           2.79923601064493    8.06295040913827   -0.67602223587651
C           3.98074453648059    7.50265602435098   -0.21367450434995
C           4.23552848966296    6.23493853575751   -0.71757566093878
S           2.95791080606821    5.73749209278451   -1.79110370861461
C           5.38488964970316    5.43350554935585   -0.52783871755133
C           5.47831834129340    4.14486759163457   -0.94564358592513
C           6.66039888517028    3.37323080980698   -0.98324616784721
C           6.76741828869535    2.03781154692861   -1.33589701695497
C           8.07665791999071    1.59373133417476   -1.45993193823794
C           9.01797921401850    2.58226124844351   -1.22078797084978
S           8.24342341966219    4.07155146058891   -0.76072794292323
C          10.41022293266400    2.52157221449079   -1.47165247903996
C          11.11402239592471    1.47434529054502   -2.04469046637963
C          12.41835791189509    1.80744909178085   -2.38354525670481
C          12.76470463766761    3.10945898647020   -2.06289651323213
S          11.43068261915488    3.91887271340900   -1.28327711387708
C          13.95012325645616    3.78502887759433   -2.43001561621099
C          14.32622704101882    5.01867709951510   -2.00705709286974
C          15.39478010532236    5.74707529509932   -2.58155137223250
C          15.98563754980253    6.91594592880994   -2.12463767110398
C          16.94249237286131    7.43425156731172   -2.98554788770891
C          17.09166906832381    6.69275583624117   -4.15003883080589
S          16.05939839706574    5.29042809079274   -4.12481539862567
C          17.85408867479601    6.98847822543158   -5.29800816433005
C          18.80213339281055    7.99000218699633   -5.49361270284638
C          19.28530313789603    8.04429784290775   -6.78408752550080
C          18.71721700766464    7.10048181139748   -7.65098111799862
S          17.58359538713974    6.10235427369204   -6.76949951082206
C          18.97527032578058    6.99956806351529   -9.01555336091621
C          18.36447274123018    6.17057675612108   -9.94405234394682
C          17.34993854381380    5.21087235723344   -9.77792452956268
C          16.97289135840147    4.63113050336390  -10.96631806505781
C          17.68707745597986    5.11841855668861  -12.09102497147583
S          18.84042172793702    6.30749033110643  -11.64803716783850
C          17.20172843006427    4.46614033525989  -13.23359181096662
C          16.18183650058188    3.56403942218786  -12.84914350945409
C          16.00624970770565    3.63471652511102  -11.42728625670041
C          15.12343334673772    2.93244143847178  -10.64460314159830
C          14.22669106746667    1.99489002401165  -11.18930942577568
N          13.49181940000391    1.22876409883798  -11.62672637165256
C          15.05433449760507    3.09873017059486   -9.24966178017530
N          14.98933973403369    3.22473430645018   -8.10993362903613
C          15.63900851290662    2.87250175792138  -13.95043454175285
C          16.23014011328549    3.24326248973703  -15.11673659309920
S          17.47138390637019    4.44752754745350  -14.92636428002791
H          -2.44467478622173    2.13104291172782  -12.13939419831765
H          -0.54809060283122    1.41134693103441  -10.48932604390861
H           0.05508747458227    5.01985964741856   -5.53721535295523
H          -2.40468129889584    8.09458253087075   -5.34843180961447
H          -1.59944779330227    9.41208944259293   -3.34272140533058
H           0.24159886717363    9.41596943027899   -1.53280704556555
H           2.44970503878504    9.04122767236495   -0.39919768190359
H           4.65069672370685    7.99466748791561    0.46918370942363
H           6.23548036990471    5.90749593834714   -0.05441431072628
H           4.59389875905248    3.65829099039482   -1.33933202615686
H           5.90511476551881    1.42099678882197   -1.51631736725567
H           8.34279313096076    0.59231012234143   -1.74484894092389
H          10.67325725692621    0.51400430021602   -2.24028847831908
H          13.10210425007770    1.13461113484620   -2.86972142976288
H          14.57135287131466    3.27013081329920   -3.15322938778849
H          13.77375638190655    5.50732866132297   -1.21446572591297
H          15.71447528955508    7.36878345808424   -1.18727975354406
H          17.49265809767480    8.33867629272217   -2.79783981797110
H          19.11917326702508    8.64747402674242   -4.70431099613800
H          20.01914461766952    8.75440163199084   -7.12219417801472
H          19.72247894608291    7.68330608083572   -9.39859420127804
H          16.92034150670444    4.97128331078461   -8.82384745670414
H          14.85361429291522    2.14152846159978  -13.88498654057512
H          16.01920868973162    2.88515056596363  -16.10457404070005
