93
 SCF done       -187.647511251029          0.000442860846
C           9.15494007601085    7.65199292265241   -1.38460704175986
C           9.37957179811581    8.98455441157344   -1.55134084814477
C           8.22924217255358    9.64432630256123   -2.02607335107706
C           7.15056695088348    8.77336427839831   -2.20407516580385
S           7.54458002177639    7.16353517305058   -1.79683302600440
C           6.03801996802674    9.52146121278050   -2.68618328437679
C           6.42169413153738   10.86235399943876   -2.81492606178368
C           7.80968428770406   10.98856813106427   -2.39035465234608
C           8.55304845224433   12.12964796761389   -2.32680642388330
C           8.03719174395353   13.40227125256332   -2.65421767575039
N           7.64122568684497   14.45266860273207   -2.88668613582164
C           9.89740793648276   12.12404675232165   -1.89806710752347
N          10.99051515441862   12.12591400791414   -1.55149217759160
C           5.40472310453064   11.68249144580088   -3.31618329951014
C           4.25102896847679   10.97386515605208   -3.56431610604440
S           4.42234545869149    9.26711167545696   -3.15581212875399
C           2.97966420460282   11.37251727135479   -4.07988208003274
S           1.60083395606850   10.45262608024820   -3.53700463836246
C           2.61085459094398   12.31850055267689   -5.01877033745208
C           3.54901569934126   13.20008568766831   -5.74077157456168
O           4.75867055182199   13.17941109712059   -5.59081034109960
C           2.87367101584196   14.09104825405916   -6.66864748136950
C           3.40874362834524   15.08577963305104   -7.45791049032917
N           2.40535525570244   15.67634252858507   -8.14857832402584
C           2.57365808787743   16.72351860090959   -9.12412711099541
C           2.82767169838161   16.14355334775850  -10.51399221785684
C           1.23039579662403   15.07815292805514   -7.84026271983724
C           1.47077042388640   14.08603899366455   -6.91475084603593
C           0.54308442579391   13.16440561569133   -6.28297393759305
O          -0.65419349956671   13.14023183463859   -6.51012321054397
C           1.21098254358636   12.27117726551560   -5.31534045261033
C           0.53924851633886   11.27426878058867   -4.64045798448755
C          -0.84073423659490   10.88932370653443   -4.76558634088220
C          -1.29699700464735    9.62739641153325   -4.70129546221512
C          -0.46175069688289    8.44575278265179   -4.60066412957695
C           0.71459008672830    8.27281520457352   -5.34892106766795
C           1.63582837525873    7.19993294602764   -5.08527225992851
N           2.79014345625203    7.12557505087128   -5.79411497420648
C           3.03791034791781    8.02496227694595   -6.68237312811697
C           2.11138111048540    9.07138699166454   -6.96349840303201
N           0.99881579203210    9.17151860271066   -6.32424204332271
F           2.36751958635063    9.96742583962078   -7.91611449399514
F           4.18510630019158    7.93793623294948   -7.35467779872849
C           1.38358782100444    6.22787510193471   -4.10482292951378
C           0.15009220199959    6.32663754229351   -3.44035727250876
C          -0.76748343900659    7.41726268568153   -3.69649728343335
N          -1.84935121255934    7.34814791757381   -2.91277209429015
S          -1.71918016886827    6.06185051452816   -1.96616700186114
N          -0.30094211348450    5.52631464525288   -2.46868831191400
C           2.38671661847582    5.24911696098493   -3.69668896593675
C           2.05734476320184    3.90304191771740   -3.47780755655065
O           0.81351115590260    3.41327344397892   -3.83137628539916
C           0.53576073645902    3.44423342694202   -5.21429167426315
C           3.00372574607760    3.03640631781291   -2.92208817526692
O           2.78856344233022    1.72656768047371   -2.64362968465325
C           1.48990394949944    1.21455786580902   -2.42893365417392
C           4.30860154516429    3.49923124718542   -2.62935528670988
C           4.63107628349356    4.82240235675251   -2.94191755169150
C           3.69016048430134    5.67895171770247   -3.45422625332851
C           5.28206393785470    2.63303221658522   -2.01581390648252
C           6.57087615543029    2.96336019875080   -1.65536949820191
C           7.23892967231951    1.89944943557727   -1.04668163417002
C           6.46698462109057    0.74257322752930   -0.93518583196175
S           4.89236016097320    0.97778196371831   -1.59599795506992
C           7.17394295257806   -0.29931362014213   -0.31491089808620
C           8.47078236712741    0.06836371427207    0.03724766688983
S           8.84360482360150    1.71419546808104   -0.39038564401174
C           9.19821857955731   -0.96340526691607    0.65967327115718
C           8.45059002809170   -2.09206928840444    0.77185712772042
S           6.85066097371308   -1.93541446387280    0.12826785384352
H           9.84277790166396    6.90595666752216   -1.04023894058958
H          10.32067250013280    9.46038354914670   -1.34504036980764
H           5.49595348287201   12.73566365354945   -3.50260269380382
H           4.42881211768665   15.40243065015138   -7.54823614515942
H           3.41705896832026   17.34885126507509   -8.82006319143248
H           1.66901235305886   17.33704414137912   -9.13432839740102
H           3.72948016051331   15.53622829483296  -10.51127132090960
H           2.94899950282016   16.94671354218752  -11.23527874069144
H           1.99235276068691   15.51935158733868  -10.82197533650526
H           0.30156466490327   15.38605677895868   -8.27784184495523
H          -1.53070772033131   11.70329716775838   -4.94158407671548
H          -2.36222768593790    9.44592350230456   -4.68764854796437
H          -0.46730639695052    3.03561156761667   -5.32657640668188
H           1.24839804295156    2.82629128395170   -5.77292948371306
H           0.56094953267164    4.46101020927693   -5.61854625809428
H           0.99876237117757    0.96755643773334   -3.37235678649998
H           0.87025178756228    1.91910392953960   -1.87282016837446
H           1.63529766094978    0.30358703836208   -1.84702045709535
H           5.62644940965276    5.18817329985497   -2.75549498931855
H           3.94511827590192    6.70700490635607   -3.64600143331318
H           7.02028784064366    3.92500477237536   -1.81575464684700
H          10.21230162023071   -0.87031672477796    1.00124178659691
H           8.73980283758317   -3.03065025786447    1.20082621418702
