104
 SCF done       -207.524630225969          0.000659242930
C         -10.71577167153570    2.29661806428465    2.19968739319027
C         -11.62755114358453    2.74693653996862    3.11272036169205
F         -11.99131056888241    4.03743579999716    3.12162355077247
C         -12.19604058173698    1.86538913166570    4.05283304727302
F         -13.08938938388996    2.33417875508813    4.93674224184381
C         -11.84450719839061    0.54469945321723    4.06763640338154
C         -10.90800874110018    0.05045633503058    3.13958766181846
C         -10.33238931296811    0.94056633266631    2.18805321329999
C          -9.39126633044726    0.46666197837781    1.24474543065654
C          -9.03851997042621   -0.85692816024032    1.25228798338153
C          -9.62033472730392   -1.73683542668560    2.20375256271654
C         -10.52844018374724   -1.31046020962997    3.12806045206806
C          -9.09397734518860   -3.10273017462746    1.99841340872466
O          -9.38724613105740   -4.07209756446716    2.66971166538804
C          -8.18698371169933   -3.01281252651326    0.83800007371111
C          -8.12118137846909   -1.62801668559734    0.41549990211037
C          -7.32920764589996   -1.08585959024202   -0.56903520753162
C          -6.40658646229629   -1.77897300609527   -1.37728605771935
N          -5.63074708868832   -2.26260189304568   -2.07522012449833
C          -7.31574433045030    0.28286816582148   -0.90771001805015
N          -7.25087222137550    1.38020643562845   -1.24057193792881
C          -7.54099687259678   -4.03482925991081    0.17981062663334
C          -7.46444002350851   -5.41192072861166    0.41926885676575
N          -6.77984510413552   -6.19857381409510   -0.50363084165314
C          -6.83131533330527   -7.48593633143397   -0.09948912909386
C          -6.46277150284342   -8.78464075274772   -0.42929087081614
C          -6.96284380581180   -9.60136905629920    0.59509994901161
N          -7.61042396972754   -8.82362544756759    1.52949281524622
C          -7.55805951542897   -7.52537210311182    1.12676202843824
C          -7.95181459645864   -6.24138419163205    1.45112919017168
C          -6.90325752805054  -11.01078485872618    0.74776969225138
C          -6.38799962259175  -11.86543542277809   -0.17048920785810
C          -6.37103059273309  -13.27705879425421   -0.04110599886451
C          -6.76185278316762  -14.07234055813321    1.02442228828177
C          -6.63462447833782  -15.43086968573592    0.74417306320104
C          -6.14275250198352  -15.68273550580448   -0.54946798093322
S          -5.82471600256002  -14.24288401431861   -1.40838148901263
C          -6.08454282029606  -17.08390797652628   -0.74238937130411
C          -6.53113685337564  -17.72214141320632    0.42670426910036
C          -6.88401090690307  -16.70353214638983    1.40334544519252
C          -7.35286785181518  -16.89858970123200    2.66949448420556
C          -7.54366591308631  -18.18755879069386    3.20980850586710
N          -7.69345049031368  -19.23483884992694    3.65184413622898
C          -7.67093698921721  -15.82022710178861    3.52101527440874
N          -7.93128525442469  -14.94054260600874    4.20910764512062
C          -6.54004421455449  -19.11313563923359    0.32274716346269
C          -6.10778590543224  -19.54518392741173   -0.91765188534731
S          -5.67370928931415  -18.19970243296196   -1.96817167353191
C          -6.03133712340695  -20.87963735830456   -1.39277233535351
N          -5.59832980927861  -21.17824061430206   -2.66478752154291
C          -5.70394784430230  -22.52184108451606   -2.84736279596956
C          -5.57709839375213  -23.53621660187218   -3.78216677438480
C          -5.98329844895550  -24.72047183011639   -3.13592845312309
N          -6.31001389453684  -24.42195629557427   -1.82244142363234
C          -6.19407342856086  -23.08511650040640   -1.63806978538285
C          -6.39427454783449  -22.05427049029390   -0.72513559576489
C          -6.06367800084930  -26.05182994334714   -3.59210855454424
C          -6.08173386522947  -26.55965187638657   -4.86614654724563
C          -6.25412915732404  -25.97101938157197   -6.13084126924991
C          -6.78414018281988  -24.78557895618759   -6.59116832948392
C          -6.49805826094293  -24.41545384941456   -8.00240432061578
O          -6.01497316611230  -25.12299160414229   -8.85797191157980
C          -6.87417528191502  -22.98930781645051   -8.12369634304100
C          -6.73131855492321  -22.14719717048430   -9.18628959933896
C          -7.13232354857522  -20.79718703593500   -9.05176292436123
C          -7.67642413676624  -20.35188448041698   -7.81309000167706
C          -8.06443708073570  -19.00402648115737   -7.68106300005142
C          -7.92241748903619  -18.13956997408446   -8.73036082152986
C          -7.38794982569733  -18.58167340130237   -9.95557574049206
C          -7.00059511402405  -19.88335864206068  -10.11435555591877
F          -7.25915992157293  -17.71200905967424  -10.96823061089253
F          -8.29082220571343  -16.85658133891848   -8.59843988062199
C          -7.82695808825149  -21.25503307440963   -6.73437416038881
C          -7.43204471875346  -22.55607273243434   -6.88822428210702
C          -7.48912201679852  -23.70136636219806   -5.98035361115994
C          -8.18606369824073  -23.72569057077576   -4.78990200714558
C          -8.56124107157626  -24.90968328609399   -4.13490709893057
N          -8.93956639168110  -25.85280730791069   -3.59817041551330
C          -8.65661338239493  -22.57569506719570   -4.13287946156406
N          -8.97369401106086  -21.66578783990773   -3.50624949709378
H         -10.28961885409817    2.98515719199969    1.48680732706233
H         -12.28906203337406   -0.11788760465212    4.79364500244262
H          -8.97894137601255    1.16712983366273    0.53720774542365
H         -10.95337256779356   -2.00283970445863    3.83884692620442
H          -6.99661689830068   -3.73705541214781   -0.70850551788805
H          -6.32915129353971   -5.83950423375267   -1.32862447995530
H          -5.90752275663999   -9.11472476940166   -1.28300433612154
H          -8.06658264491799   -9.17723527061150    2.35306343467183
H          -8.51596317575832   -5.90099024540078    2.29404458304439
H          -7.33124346354983  -11.40687778996265    1.65868329476967
H          -5.98195265286105  -11.47041792917830   -1.09051186252990
H          -7.11903527394673  -13.67520381689937    1.95609005227882
H          -6.85075676893303  -19.78584435615536    1.09966019914186
H          -5.32224519713628  -20.49557595463384   -3.34967193708468
H          -5.19315588085736  -23.47478473846012   -4.78062915580256
H          -6.71958192513550  -25.08234436936937   -1.18344658948335
H          -6.76628609281233  -22.11798646757827    0.27617175509977
H          -6.08671319772100  -26.78654086375226   -2.79515164684071
H          -5.92894468700727  -27.63168268827942   -4.92017114059775
H          -5.89757580967108  -26.58926656167598   -6.95278426912510
H          -6.31624762137422  -22.50192202232956  -10.11732572756910
H          -8.48000197602933  -18.64933384553513   -6.75068977841673
H          -6.59275142471565  -20.20653278877151  -11.05928040736730
H          -8.24806691521727  -20.89091820857992   -5.81084183338120
