69
 SCF done       -148.037125675012          0.000912256696
C          -0.29256134140972   -2.81764316433024    1.65500097285308
C           0.07242430235421   -2.44426855610927    0.39706314815148
C          -0.06220600456027   -1.05460609477263    0.21614857961775
C          -0.53373668528138   -0.41028722933289    1.36502988716985
S          -0.80720002623062   -1.49789421194586    2.65193377760824
C          -0.65037853497013    0.98261587990006    1.08890067371544
C          -0.24974762459221    1.20940413130623   -0.23442752748419
C           0.13745846801800   -0.06368451973803   -0.82780164795910
C           0.58988453012901   -0.27665902141110   -2.09661851286986
C           0.74773807608503    0.76904724198238   -3.03120666143164
N           0.87934488027773    1.60553221349132   -3.80416121232529
C           0.93165493370069   -1.56390136544455   -2.56246369707160
N           1.21602175226188   -2.60623804873027   -2.94668622245507
C          -0.34411797730381    2.55112680768011   -0.61039055161532
C          -0.81354865517753    3.34773598896116    0.41376243359232
S          -1.13752826536871    2.41349170593051    1.87276791526475
C          -1.07125035511013    4.75794956658697    0.39772485281585
C          -1.54233253721688    5.42593368248305    1.51734806239687
C          -1.85613787256421    6.78427284033332    1.51778801606419
C          -1.72705815031503    7.56821042474861    0.38763170637457
C          -1.18713023098248    6.94709076871344   -0.76976109524183
C          -0.86645468885454    5.54142750569105   -0.77763659942604
N          -0.38252717869257    5.11418452145183   -1.93710544716791
Se         -0.28893853381631    6.44649577317538   -3.06676024139194
N          -0.91997734635004    7.57620680318926   -1.90598867254667
C          -2.09187045175984    8.96771808561747    0.37064733168773
C          -2.58926543255753    9.72385359963664   -0.66765275177745
C          -2.95305310962627    9.20382348751607   -2.01364840176459
O          -2.71532109212387    9.77974323798071   -3.03578807971844
O          -3.67505913200537    8.06193927836106   -2.01546677884576
C          -2.75291214076682   11.09868478623754   -0.31427419133488
C          -2.40232015381565   11.33555849381553    0.98671495345282
S          -1.84437672262731    9.93776808365856    1.79109010633988
C          -3.28624812604452   12.12419819327466   -1.18814902816071
C          -2.89819770097646   13.44154208960085   -1.24985573796268
C          -1.77628368186656   13.98588735327933   -0.44266187927195
O          -0.69627571540003   13.48085439194227   -0.34410911777703
O          -2.07415328666196   15.11950461778175    0.23399580933375
C          -3.70222094249357   14.21193244553565   -2.14807245492291
C          -4.68895194313431   13.44883934416882   -2.71598215449410
S          -4.65881648575477   11.82260343945153   -2.19813979938239
C          -3.50246142102021   15.60464420585558   -2.48598977361844
C          -4.47768157582383   16.50707792469738   -2.84053379025052
C          -3.93947653665112   17.76290297490107   -3.15140661748323
C          -2.54610382994753   17.79500984584865   -3.04216902189229
S          -1.89009864806130   16.29702187457679   -2.56185429311888
C          -2.09926005848886   19.11417648768783   -3.36137547287935
C          -3.21374592250118   19.89914746582554   -3.66931879695472
C          -4.40912647863230   19.08204943259355   -3.55082648142898
C          -5.70145265381341   19.46390903379998   -3.76515301767948
C          -6.04598881673150   20.77651112755328   -4.14981351552907
N          -6.33295971526452   21.84256678439551   -4.45983046863018
C          -6.78103774592262   18.56955621621061   -3.61318294882855
N          -7.65852216373645   17.84278710379956   -3.48102173157070
C          -2.86507944362553   21.22473472438340   -3.99314285221779
C          -1.51821415423540   21.41196367194044   -3.92460261002063
S          -0.64000159696106   19.99011999870411   -3.46753763127885
H          -0.29408363201321   -3.80447262765642    2.07266845400388
H           0.41617320066783   -3.13226528375004   -0.35338582637509
H          -0.09310663694335    2.95127198925803   -1.57500269153928
H          -1.68888132211221    4.86796272816665    2.43071768398333
H          -2.23451487755473    7.23395573048236    2.42397250571411
H          -3.80207265089162    7.70328337679763   -1.12768874729565
H          -2.44823488494990   12.26353674038678    1.52035470686428
H          -2.97368185187107   15.42894196179827    0.05956214058612
H          -5.41328937754233   13.76405412318976   -3.44001829454671
H          -5.52505345670033   16.26733525762155   -2.84761332686797
H          -3.56319667076927   21.99701026782519   -4.25974373688963
H          -0.96967589396350   22.31232229140279   -4.11586360616432
