103
 SCF done       -222.298909291816          0.000369480669
C          -1.66732451828198    3.23944295781612    1.34288115901091
C          -0.91070767571141    4.02035729499339    0.51514057976702
F          -0.70947659493948    5.31217668928600    0.80639035467800
C          -0.33356450278399    3.48034774503700   -0.65204531654770
F           0.40345022573517    4.27023347377226   -1.44425246830722
C          -0.52184405930438    2.16596964626070   -0.97577952617796
C          -1.29703602900108    1.33568641088147   -0.14311839418981
C          -1.88008543387386    1.87970378593826    1.03808300108391
C          -2.65912573539539    1.06536508671012    1.89150022338412
C          -2.85039461733115   -0.25419565950427    1.57367047668714
C          -2.26997577601969   -0.78411356003657    0.39005573883005
C          -1.51153871322485   -0.02509044916848   -0.45363167249865
C          -2.62554739901038   -2.20931991738022    0.25907519648072
O          -2.28529787437766   -2.93807716848248   -0.64845580823519
C          -3.47885064717757   -2.52178588258616    1.42996214002384
C          -3.58194427718985   -1.32325329411557    2.24855003591411
C          -4.20890049797643   -1.19138982152199    3.46117183235574
C          -4.87821343495654   -2.20604455777107    4.17793402371594
N          -5.43324930366838   -2.96599380701288    4.83723552957382
C          -4.25804758363077    0.01243842143585    4.19706534669848
N          -4.34265160099811    0.95387701127838    4.84839419868412
C          -4.13577275767357   -3.69055204542862    1.71273477173613
C          -4.13833484217619   -4.94411334733256    1.07409999784513
C          -3.43422286196060   -5.46636292698232   -0.00580007378022
C          -3.77100201328775   -6.78669178631197   -0.26261839711405
C          -4.74768063513239   -7.29604092715318    0.62643266129398
S          -5.23687788725171   -6.14814713508034    1.77649726946963
C          -5.02563288223190   -8.63496447705622    0.26845033324631
C          -4.23298354951287   -8.98032884876753   -0.84034991631643
C          -3.41343224267474   -7.83318713863382   -1.20654127824266
C          -2.50270339691514   -7.77197448208000   -2.21826010751626
C          -2.25822155713748   -8.87601231148559   -3.06427148942590
N          -2.06011533587827   -9.77258513087617   -3.75064692194732
C          -1.72863514541040   -6.62434960259931   -2.50027857640424
N          -1.07586304890344   -5.71786125139767   -2.75534762180153
C          -4.44554751482374  -10.28768186705174   -1.27231521149602
C          -5.39310174333376  -10.93986669863433   -0.50240094295171
S          -6.02949630691228   -9.92309667079485    0.77836598151903
C          -5.86343988402053  -12.26762814173265   -0.66780697312541
C          -6.80852803229555  -12.93120764603470    0.08674688376521
C          -7.03288246320038  -14.22455253680840   -0.38472569067694
C          -6.25808914986777  -14.55719949855391   -1.50387728173241
S          -5.23487667241426  -13.25489098788984   -1.97754990393336
C          -6.51764280958443  -15.85098647092416   -1.96216542303922
C          -7.49054007142538  -16.50253160523884   -1.19235519302105
S          -8.08731613737887  -15.51750359722970    0.11348813010246
C          -7.78544613864783  -17.79127972505379   -1.63688337871894
C          -7.04125592554612  -18.13303603479053   -2.74696433608056
S          -5.95455045924435  -16.84752149445433   -3.24924518304974
C          -7.08255871979784  -19.34209244938459   -3.48686367760719
C          -6.32245493632717  -19.66457608405485   -4.59821877030746
C          -6.63636753199574  -20.92708262229590   -5.09496203345869
C          -7.64389479104133  -21.57245205753758   -4.35644848289846
S          -8.19919080448195  -20.62245825298706   -3.04702553623225
C          -7.90586295675225  -22.82814356082008   -4.95193715393797
C          -7.05518398715704  -22.98458357837332   -6.06706083141979
C          -6.22863441775844  -21.79629672287678   -6.18981408415263
C          -5.27172716575763  -21.54410153995535   -7.12715877676176
C          -4.94930747096333  -22.47194101854831   -8.14100455126921
N          -4.67866320344165  -23.22630530490510   -8.96044502497640
C          -4.53295972522774  -20.34139553407284   -7.13823598216776
N          -3.92914335984067  -19.36703412251101   -7.14644646741308
C          -7.24214105791598  -24.19624155726196   -6.71982969965508
C          -8.25322803099813  -24.95583943974645   -6.14694585179017
S          -8.93664736456942  -24.16179829095126   -4.72636611974498
C          -8.63937411222156  -26.24642820635498   -6.56740279127709
C          -9.75297498356558  -26.97180865558285   -6.26802974657088
C          -9.71683619348245  -28.45235972485538   -6.42637233154064
O          -8.88050924066361  -29.09768952041182   -7.01322103167455
C         -10.87826681382921  -28.94932533375698   -5.66002942011891
C         -11.23600488268822  -30.23724009160201   -5.38405350303080
C         -12.38670249802075  -30.47705463004646   -4.59973005997973
C         -13.14312125946896  -29.37254846470516   -4.11015425781484
C         -14.28492028277303  -29.61984395693228   -3.32192341332193
C         -14.66039988899052  -30.90252363301567   -3.03649920596261
C         -13.91311393729590  -31.99402958992814   -3.52318696554811
C         -12.79991042506284  -31.78714608340210   -4.28868038153718
F         -14.30404466852785  -33.24038569645826   -3.22666374544588
F         -15.74616270506368  -31.13512363213025   -2.28789991455506
C         -12.75311350513761  -28.04923619578614   -4.41949419861779
C         -11.64052561925826  -27.84193394394207   -5.18934629208959
C         -11.03428720477099  -26.61526882554128   -5.70065052998542
C         -11.69114317099079  -25.42391323103830   -5.87109850681397
C         -11.17928917666813  -24.36562477241032   -6.64910484867621
N         -10.80781036722913  -23.50466346785294   -7.31154389453639
C         -12.98323942129622  -25.16374056584585   -5.37274474745568
N         -14.02314301517246  -24.89837986099685   -4.96592969647013
H          -2.10080915538439    3.66868610256797    2.23268915893987
H          -0.07391838479527    1.76697888564456   -1.87234608500213
H          -3.08600908292314    1.51123393266379    2.77478836645269
H          -1.08276557156255   -0.45976397370221   -1.34372652398203
H          -4.78471059352586   -3.66646980903342    2.58026922575855
H          -2.72239648263402   -4.88307556993417   -0.56276069157286
H          -3.94964044126917  -10.75842659541795   -2.10201929629791
H          -7.30716080950552  -12.49207904473627    0.93142005342048
H          -8.50533962541574  -18.44670738987435   -1.18184007923690
H          -5.58689877096804  -18.99784513617684   -5.01112504034340
H          -6.70330292390286  -24.51977290196620   -7.59209904170011
H          -7.89769512024526  -26.77509701140832   -7.16003748199063
H         -10.65017066560160  -31.06230774511237   -5.75954348655513
H         -14.87078890974744  -28.79608984214383   -2.94508863158618
H         -12.23869844716546  -32.63303588314243   -4.65365119246840
H         -13.33862860554266  -27.23058781837422   -4.03200550636944
