102
 SCF done       -202.851449625367          0.000678341257
C          -3.69509985018078    2.01543132112803   -4.56085247340228
C          -3.38271692614108    2.10647286863243   -5.88829336492889
F          -3.09700970817220    3.29720195454227   -6.43310798485948
C          -3.35702654038812    0.95497213815023   -6.69974389611138
F          -3.04666109745237    1.07382821021930   -7.99870749514255
C          -3.64546778949034   -0.27253144354389   -6.17253029027362
C          -3.97283880085238   -0.39859800064708   -4.80867080627110
C          -3.99810771564344    0.76469861459905   -3.98639963528517
C          -4.32554346269477    0.66345057064010   -2.61419486197338
C          -4.62111426459451   -0.56314084724379   -2.08109702578066
C          -4.59151788249189   -1.71818112229851   -2.91109967563814
C          -4.27840602058027   -1.65407073780836   -4.23770954202879
C          -4.94252999939301   -2.89918973512510   -2.10354447139253
O          -5.03608171834676   -4.04491702073320   -2.50954730811108
C          -5.15450571369078   -2.41493496704257   -0.73698868288269
C          -4.99999902005196   -0.97296996204927   -0.72917629500019
C          -5.20917937515298   -0.11762222405616    0.32137168156752
C          -5.64852255510060   -0.48448414229002    1.61130589694433
N          -6.02747446761670   -0.68879091357482    2.67590894527690
C          -5.04443910450217    1.28125146690360    0.24277426564905
N          -4.92913589087254    2.42358951575237    0.24427882859990
C          -5.41066614934542   -3.20468413268934    0.35728970405398
C          -5.58386398721492   -4.59156843606550    0.45339337492604
C          -5.81981989024332   -5.21563725150591    1.68541866507803
C          -5.96423150024780   -6.58291423325730    1.56458365190339
C          -5.84345945146576   -7.02068669278096    0.21962903120943
S          -5.54767192254925   -5.75244362630438   -0.87623500100291
C          -5.97194641400512   -8.42654661611024    0.20943030081916
C          -6.16545725150293   -8.88208377485818    1.52935035779633
C          -6.18970604767280   -7.73234519371257    2.41897403686492
C          -6.39295269522462   -7.74593624472528    3.77038002412367
C          -6.62616073275150   -8.94481411517125    4.47112319141950
N          -6.79404567329519   -9.92948666811523    5.03742665170958
C          -6.39785547007928   -6.57438592656538    4.55644383522312
N          -6.41956363063819   -5.64037358743369    5.22046757183529
C          -6.25731355799536  -10.26809145871315    1.62334693781558
C          -6.13751584874709  -10.88104797756778    0.38493670154000
S          -5.92754347430429   -9.71240921953930   -0.91563339503428
C          -6.15047428608801  -12.27865225604035    0.09923638189978
C          -6.00583431008085  -13.24356281053559    1.07056479261254
C          -6.02738511982031  -14.61475600006284    0.82837240181124
C          -6.21004646294335  -15.14690781456459   -0.52314060711494
C          -6.34549143775834  -14.38268593843891   -1.62964290634654
S          -6.34872485435760  -12.66996449587119   -1.60310660617324
C          -6.20091461429294  -16.56024754568003   -0.37507704702443
C          -6.03186003685320  -16.90334663007360    0.96874565605458
C          -6.00354717689262  -18.30660188165107    1.14119281235365
C          -6.15490219694601  -18.96485817029246   -0.03807580569766
S          -6.33373419373302  -17.92532184864446   -1.40742974102585
C          -5.91692868165823  -15.68901455966704    1.74197181661596
C          -5.73781026204734  -15.53270285630742    3.13074521286094
C          -5.77987725507794  -16.53516617700939    4.05431291930805
C          -5.61636745303037  -16.38413845730657    5.45524278658547
C          -5.39451330519598  -15.18375102794676    6.10582572619292
C          -5.23293626498974  -15.03152894307058    7.47459315394425
C          -5.40055728049973  -16.16955713503848    8.38447865817714
C          -5.60881919788168  -17.44309574659766    7.97865661830119
S          -5.71989232837139  -17.90239733736468    6.33315918710416
C          -5.30760295430530  -15.63208436558166    9.69822807005143
C          -5.09027823363803  -14.25783589738761    9.62916401490463
C          -4.98618812195337  -13.67105865138916   10.90892318343059
C          -5.12823026479894  -14.59623705474402   11.89433630272220
S          -5.38588716467208  -16.20726545945473   11.31614007534633
C          -5.00437394068313  -13.85725208591804    8.24575954543833
C          -4.71541834037852  -12.54712471251293    7.84402924781300
C          -4.35072359979919  -12.12843728650962    6.58747411525792
C          -4.11410966501554  -10.79075195168657    6.27244369083402
C          -3.77725667479757  -10.35039148307304    5.01420866540870
C          -3.65590544151028  -11.13373573930330    3.81296868477936
O          -3.87175305042464  -12.32444457291304    3.66038302414709
N          -3.25588462254764  -10.32561180064448    2.74104633093600
C          -3.17590975457477   -8.99736463600394    2.99569375552065
C          -2.95322864877194   -7.98605404864456    2.08830648133764
C          -2.79672110185099   -8.15331906974932    0.70436021781635
N          -2.70269599268730   -8.21827790660995   -0.43935548138481
C          -2.94318108472368   -6.64048953483390    2.49899280630641
N          -2.95866427471411   -5.52924323668701    2.78656377918287
S          -3.46455762979061   -8.65520244905906    4.67996649712146
C          -2.89412451637901  -10.93606298476679    1.48611068712878
H          -3.71049042304269    2.90721959873191   -3.95391787614136
H          -3.62150760225510   -1.14498390936324   -6.80655928942990
H          -4.33195368864236    1.56316590298386   -2.02091305162533
H          -4.26454955394911   -2.54826096685892   -4.84211741696160
H          -5.48443662346763   -2.70505570845289    1.31574915665066
H          -5.86321341731203   -4.66518821896695    2.60825896158554
H          -6.41666725388534  -10.80795710404251    2.53863369640780
H          -5.83987917282390  -12.90425888140033    2.08241615956118
H          -6.46866896639767  -14.80230249039370   -2.61550526240894
H          -5.87175997535940  -18.82566725801180    2.07238386216259
H          -6.17240620317751  -20.02538075122918   -0.19687717125285
H          -5.55710380975357  -14.52052625320768    3.46202073802776
H          -5.97002396183503  -17.54414211863854    3.72082668263568
H          -5.37421308635850  -14.30394187743252    5.48471235070884
H          -5.71426844016799  -18.26288628498335    8.67140923434465
H          -4.81962938643236  -12.62639305527326   11.09874114296531
H          -5.09677968153538  -14.43662976971568   12.95440588260561
H          -4.75577397101772  -11.79839660870443    8.62706957232990
H          -4.20277401522646  -12.84186210739725    5.79606183829866
H          -4.20701822414201  -10.04617212245180    7.05328439415671
H          -3.02424321908764  -12.01130328526842    1.61510908085615
H          -1.85355783251707  -10.71585548519100    1.24269227808823
H          -3.52913809373119  -10.58816907417421    0.67310448251022
