89
 SCF done       -175.886882043500          0.000404353681
C          -3.10689083308746    4.27365434320701    9.55647413326698
C          -2.07555846037039    3.50220410817623    9.11896730448182
C          -1.33417368503310    4.15320866807781    8.11347377984341
C          -1.84128983504110    5.42912484513970    7.81651557299439
S          -3.21045393259206    5.81563367930030    8.76404511911648
C          -1.04476793171743    6.01295299247816    6.80108188663435
C          -0.03329396477672    5.09992040027813    6.45364169136394
C          -0.17677641490898    3.90533688268588    7.28373505628272
C           0.64010164909739    2.81061537788816    7.28134457747138
C           1.77641684983001    2.73176094920546    6.44812825227959
N           2.71031108791485    2.69025444145843    5.78403280132075
C           0.41587285991182    1.71162949759415    8.13509337242375
N           0.23045302023190    0.82331595709904    8.83677477708310
C           0.80274508613757    5.55699979621107    5.44659688567002
C           0.45411608093529    6.83328705944753    5.00861997002366
S          -0.94502907720151    7.45625359973243    5.88941889358902
C           1.03747840341908    7.64056762276762    4.02074010992098
C           2.03505082365904    7.29748636934400    3.13933626617909
C           2.60549313159706    8.16436945395552    2.17291577212450
C           3.55569776517895    7.58624457779171    1.38679482581405
C           3.78549367496728    6.22419994672086    1.68007425314604
S           2.76781315997711    5.71004841911177    3.00540738134835
C           4.64889062276234    5.34161791075486    1.05928379194732
C           5.54707434058903    5.59604960083579   -0.00130175527487
C           6.24625804392855    4.50004619656136   -0.40189674437977
C           5.93815398271638    3.31228517778819    0.31440135284138
S           4.72835193030282    3.65899630215315    1.53396558978538
C           6.50020890657832    2.08528020203160    0.07603839644028
C           6.23148460834075    0.86664086526875    0.73094874635017
S           7.14567941807607   -0.55290515971633    0.24665355516900
C           6.34880516229864   -1.55843225130243    1.41295374746809
C           5.38459248149262   -0.81476626413159    2.09235756268398
C           5.33261939824767    0.53862434800290    1.72239510229703
N           4.40676410093624   -1.38010402326433    2.95403344339480
O           4.50933745775456   -2.55807271164043    3.25226351868759
O           3.49260802155498   -0.66277140267192    3.30342477324606
C           6.64909885582881   -2.94775649405831    1.50099293729611
S           6.59312101752054   -3.88682097085675    0.04381348993988
C           6.75289287041021   -5.38913519723175    0.89468507622181
C           6.91271087282957   -5.15163185133165    2.27721924865658
C           6.90827257199106   -3.76059805583137    2.61030707814683
C           7.21833042863217   -3.37039678138609    3.93954817616474
C           7.55984538945896   -1.96089518347603    4.31884550938786
F           6.51575394595798   -1.17009353984022    4.61722641528569
F           8.35469665538210   -1.92066410607290    5.40349525531912
F           8.24796495550550   -1.31285656420381    3.35528974314999
C           7.33460054589451   -4.33889224620827    4.90462794156838
C           7.20716202749602   -5.69640962065961    4.60577810152616
C           7.04218936446724   -6.12425190391250    3.30544183049413
O           7.00461721373887   -7.42547097128559    2.93763654503021
C           7.10294335846539   -8.41874580269109    3.93416070971808
C           6.69869811286690   -6.60927040794719    0.20760874035516
C           6.50790481076644   -6.72511827326719   -1.14597975744510
C           6.43146452347883   -7.94869485382336   -1.81189848185211
C           6.20407741907005   -8.09032641351367   -3.16254398842289
C           6.09823597480103   -9.30419918318426   -3.88165986102455
C           5.85195360461128   -9.15029555535820   -5.21163356667022
C           5.74974883709323   -7.80024961568902   -5.62248320957158
S           5.98290993608182   -6.73263091424298   -4.25184764282849
C           5.50135820878870   -7.31978575426200   -6.88890285530842
C           5.29030090058303   -8.07870088247342   -8.07296339994469
C           5.06298987301294   -7.33504024376867   -9.17891683582572
C           5.07740612609102   -5.91863207995257   -8.95287905676794
S           5.40011835471764   -5.60740302294383   -7.23959438254948
C           4.88386232610787   -4.94171102624968   -9.84999245801131
H          -3.83289764343743    4.03836950887156   10.30863549626820
H          -1.86178493927619    2.51953662790056    9.49798314532928
H           1.63644218544714    5.00546427064200    5.05668080013128
H           0.64528146650015    8.64569126195058    3.93179664938741
H           2.29203825167283    9.19035270877923    2.09163257675308
H           4.08604387572023    8.09724308286839    0.60346934441579
H           5.65310908972490    6.57466040370181   -0.43390741025299
H           6.97488354549846    4.49828596582307   -1.19324696952367
H           7.24377466090389    2.04239194922235   -0.70921161081324
H           4.63442354531123    1.21728907507503    2.17581175359566
H           7.55044562536886   -4.05439463400596    5.92273244406968
H           7.28577538298362   -6.40181842431658    5.41542264137384
H           7.03759227508913   -9.36881525394172    3.40600879481943
H           6.28150422724038   -8.34689210336875    4.65232598508640
H           8.05957236389041   -8.36324309236920    4.46179867888104
H           6.80197641170587   -7.50476105330869    0.79962233164879
H           6.39844367395512   -5.82489096249984   -1.73957792350510
H           6.54476918254444   -8.85657976085197   -1.23342613457224
H           6.20525854038071  -10.25523693178380   -3.38987842273410
H           5.74009240643698   -9.96531298188814   -5.90387438732322
H           5.31401946977893   -9.15396160802081   -8.06051786930451
H           4.88217292563916   -7.73215600594786  -10.16193914045618
H           4.68895657215108   -5.17477752486434  -10.88188379909303
H           4.91410989036288   -3.90440478015157   -9.57153203899265
