104
 SCF done       -224.895524725953          0.000367695857
C          -6.04367226791931    3.46030886243319   -0.17765336314402
C          -6.89307202008056    4.28250446464495    0.50791899339367
F          -6.86324592430758    5.60561345441830    0.30018635010917
C          -7.80881291850216    3.75276101452940    1.43926211939003
F          -8.62926374771232    4.58338688278566    2.09671529035706
C          -7.86302356300344    2.40703078212674    1.67171403612810
C          -7.00119509620421    1.53367550446982    0.98034685140276
C          -6.07360854518503    2.06791672204536    0.03958963954742
C          -5.19557888149894    1.21186586961230   -0.66382530851308
C          -5.24364619842303   -0.13840015107833   -0.43412956366928
C          -6.17751554486805   -0.66106334845166    0.50055138553978
C          -7.03706206454694    0.13847857652671    1.19684171584592
C          -6.04831531056841   -2.12941097756688    0.56072415875960
O          -6.71287638470523   -2.86632568681472    1.25811349495327
C          -4.98600228970105   -2.48068932921240   -0.41013739489147
C          -4.47443356706481   -1.24922034399801   -0.98914160431098
C          -3.42880412607722   -1.11000516767390   -1.86646084027084
C          -2.61946212136306   -2.14440145239813   -2.38188467055610
N          -1.90229175266793   -2.91446155336159   -2.84349426793453
C          -2.98746136839452    0.12959565706082   -2.37724662417530
N          -2.57634000724284    1.09856273405705   -2.83552037527495
C          -4.56562159448265   -3.72890332291985   -0.79225648034549
C          -4.89702096457664   -5.01345940305328   -0.32836114362903
C          -5.68614957748472   -5.47602914017667    0.72122162489538
C          -5.68803008744374   -6.85887251817794    0.80581949558897
C          -4.89251529932046   -7.48215338122671   -0.19049838218044
S          -4.14377705341963   -6.35468444919961   -1.21546867444792
C          -4.96409304289675   -8.87937770016336   -0.02258154215632
C          -5.80740832451731   -9.15252358196164    1.07549690346705
C          -6.27628059270117   -7.89347420611178    1.63801626191471
C          -7.07046253765230   -7.74080029261371    2.73626727760265
C          -7.53369768566033   -8.85749974043978    3.46416966042264
N          -7.89305844757077   -9.77304336940878    4.05426522977180
C          -7.46719329899044   -6.48476072603763    3.24472642405617
N          -7.80386552327955   -5.48474084966462    3.69165215501204
C          -5.95566763685713  -10.50999245958722    1.31612558767979
C          -5.22456994039481  -11.28834699058199    0.42181216931612
S          -4.37617959638254  -10.30517029397565   -0.76391022127721
C          -5.13819569004675  -12.70124117656940    0.34085785176008
C          -4.67016378399037  -13.30506736815371   -0.84072421130391
C          -4.76664291179483  -14.72321423521210   -1.07847080354783
N          -4.31068275939892  -15.04888416163583   -2.29161369729136
S          -3.80511928429402  -13.72661158988828   -3.04498215571215
N          -4.14772453827269  -12.66633227750262   -1.89189048831160
C          -5.33308064164074  -15.61176793122175   -0.14570555451379
C          -5.58997823150954  -15.04684507229005    1.14067336128833
C          -5.87540587645203  -15.72705598423431    2.30623256606838
S          -6.02502910454457  -14.69687958313513    3.64922533509481
C          -5.72093729118882  -13.31556744879176    2.70724898825517
C          -5.49699913105965  -13.61366168750624    1.37930705010206
C          -5.61199216976900  -16.94807662845572   -0.52795251351866
C          -6.45204753154110  -17.87353238076192    0.08665597699411
C          -6.50064436881819  -19.07662422832897   -0.60034125950633
C          -5.69955253082097  -19.08063614308398   -1.76280738953080
S          -4.90393914396913  -17.58683870861701   -2.00671313298845
C          -5.83962850900727  -20.33485776101928   -2.39508666083382
C          -6.73004173898672  -21.12768039074644   -1.63326024674976
C          -7.15447267196896  -20.36972649258451   -0.47240768736774
C          -7.94927021019686  -20.80437080628218    0.54841210331896
C          -8.49567368859722  -22.10475648792965    0.55125485399654
N          -8.93714158363080  -23.16290366966010    0.53166779009191
C          -8.24934579201703  -19.98251352816483    1.65394550576295
N          -8.47730490145708  -19.29972828077135    2.54672692995062
C          -6.92243244256754  -22.39241808309947   -2.16540014402811
C          -6.18601103480342  -22.59359669450957   -3.32709564022034
S          -5.26399803906666  -21.15630763420017   -3.76935824356872
C          -6.14215600971139  -23.72043667402869   -4.16935520357051
C          -6.56269565310698  -24.99661709781062   -3.92724807831005
C          -6.83245381908183  -25.88298359738162   -5.09419868803952
O          -6.51287126983815  -25.67989980688221   -6.24264617709363
C          -7.61486505660118  -27.01108384479456   -4.55236161333222
C          -8.22377123492187  -28.03367075291499   -5.22064628483824
C          -8.96587355413788  -28.98662718741801   -4.48721299718214
C          -9.06853421728387  -28.85501451678244   -3.07169316582694
C          -9.82171185197466  -29.80138749143128   -2.34843706971286
C         -10.43996495078961  -30.83217167457022   -2.99897432648307
C         -10.33524162187548  -30.96305015855030   -4.39837841953443
C          -9.61393208917342  -30.06031085810340   -5.12827635516213
F         -10.95253449933606  -31.98291767891310   -5.00990713776149
F         -11.15463894135373  -31.73130849696560   -2.31024559465099
C          -8.41863513126101  -27.79016517301600   -2.40587054200517
C          -7.69429482504933  -26.88711754188588   -3.13610929238427
C          -6.91100459398015  -25.72240228673163   -2.72645527273499
C          -6.40014049477940  -25.53249559272291   -1.46775449778096
C          -5.46138489704271  -24.53493846869143   -1.14347968188267
N          -4.67983910438810  -23.74824400954579   -0.84497215440037
C          -6.68091521229418  -26.37630789647599   -0.37246893568758
N          -6.87193314768642  -27.03551095953882    0.54704449937785
H          -5.34811711503006    3.88245451735981   -0.88612558141219
H          -8.56933112471649    2.01652471287539    2.38747066410620
H          -4.50901558276906    1.65047451051703   -1.36915961219442
H          -7.73277928737303   -0.29003201683707    1.90212018303484
H          -3.84826864335220   -3.75366935421830   -1.60411684285321
H          -6.22736764547493   -4.80893384782453    1.36875244016161
H          -6.60720207853662  -10.92549439817379    2.06028773640485
H          -5.93405377523585  -16.78383549313135    2.46174145907009
H          -5.65385420957891  -12.36615094940230    3.19560255631641
H          -7.04195087842203  -17.65064454620726    0.95471211648383
H          -7.60115686844135  -23.12472563166393   -1.76811239453307
H          -5.79386063274226  -23.54604426772736   -5.18318565253021
H          -8.14347441373959  -28.11341263493248   -6.29403483516299
H          -9.90910317234688  -29.71765902673710   -1.27646609271675
H          -9.54414093538180  -30.17391549726299   -6.19876745718056
H          -8.52116095602354  -27.70731796540789   -1.33565655003160
