92
 SCF done       -190.230643455598          0.000513718988
C          11.37249419158170    3.09467724925521    3.28961943013771
C          11.11097419226478    3.27714297246572    1.96598081584366
C           9.95062473729652    4.05205142122587    1.77544191812755
C           9.36115352604418    4.43751044819582    2.98538459258075
S          10.22180221237892    3.85556395218668    4.33898659409736
C           8.19831928515421    5.20910088459854    2.69953180724159
C           8.06235736392802    5.30723849266401    1.30883362609753
C           9.16037882434577    4.58149394723041    0.68025917138642
C           9.38463751435570    4.43235100665837   -0.65713446730316
C           8.53289991695668    4.99956213440142   -1.62799027800184
N           7.84269609904789    5.45965364011730   -2.41986536115996
C          10.48086750654069    3.70015608910869   -1.15923635623289
N          11.36913597668760    3.10449692311810   -1.57274680625989
C           6.94049941203563    6.04175546010387    0.92181679687268
C           6.22295660278939    6.49910834055905    2.01089756178986
S           6.94962471002182    6.01825219726533    3.53705660367118
C           5.01980144759412    7.25084748119300    1.99854796524766
C           4.27089888583231    7.66955799652408    3.08165619746721
C           3.12133301471468    8.35645998347367    2.68746254108053
C           3.00143263199046    8.46407500087280    1.29171315013409
S           4.30029381493256    7.72447697313642    0.46508799169739
C           1.79314033420937    9.13870710633268    0.99114281945525
C           1.14267670646180    9.45669634109077    2.19774891407704
C           1.96403966706084    8.98476102140907    3.30386297800885
C           1.70203683979577    9.09956816014475    4.63720946286935
C           0.53927853165784    9.72945384202575    5.12928109094017
N          -0.40087802432731   10.23876457959451    5.54299220882348
C           2.58106400847013    8.59379297725077    5.61820237299370
N           3.29291434067897    8.18232397483579    6.41749135544676
C          -0.08403808375882   10.08665084629489    2.00372014133758
C          -0.36807501535903   10.24918033233964    0.65670132705493
S           0.90254801828157    9.62872483295534   -0.37999336889160
C          -1.55445320293611   10.78500574797064    0.10875238147820
S          -1.77580547224974   10.92461218022709   -1.65769570830929
C          -3.35627983409772   11.50174024054594   -1.33611015640724
C          -3.58816516258858   11.55562924999082    0.04521938752854
N          -2.58434897940625   11.16159997977962    0.81778318249793
C          -4.98110493311573   12.01839205540341    0.33194608752792
C          -5.52322695091102   12.18059355716425   -1.05819099418309
C          -4.53441162211712   11.88847040761935   -2.00584591097325
S          -5.10250022449701   12.03985463198507   -3.61409209014624
C          -6.70093285212348   12.46247640052954   -3.02282896509125
C          -6.74314077876645   12.50110589408216   -1.63507012294774
C          -7.73625791571096   12.64089722825136   -3.97293994079557
C          -9.05469121223616   12.75984909242137   -3.67485559092070
C         -10.08888955818411   12.83597641050407   -4.64159299860028
C         -10.00202214264639   12.93480459628235   -6.02183860477785
C         -11.25351801672699   12.89958351334205   -6.63169105654169
C         -12.31154170056300   12.77121523181831   -5.71478150831201
S         -11.75969255802316   12.71848661096307   -4.10040353073495
C         -13.52772497915456   12.68996316737011   -6.43705484011083
C         -13.24145822161577   12.77418311078289   -7.81048790066968
C         -11.80632681072042   12.92232120543561   -7.97893803544403
C         -11.11989033343099   13.05079533424783   -9.15076123830455
C         -11.76949081200458   13.05994353718145  -10.40285470081006
N         -12.29592599373636   13.06773359122403  -11.42156547675946
C          -9.71629091203921   13.18457729612154   -9.18733460307415
N          -8.57502214200438   13.29207100096074   -9.21730067039621
C         -14.37954371929083   12.66173246380260   -8.61085785096330
C         -15.52519682420363   12.48684075120901   -7.85950425999733
S         -15.19470526756227   12.47639394025780   -6.13097406323545
C         -16.85028465380521   12.29618454262500   -8.32882002616299
C         -17.98896380916472   12.07749154691811   -7.57691220813290
C         -19.11661285856318   11.89867336028485   -8.38009830642834
C         -18.83221029439186   11.98445009171720   -9.74871910892123
S         -17.17971618375444   12.28640466613617  -10.05522254440802
C         -20.04056259907839   11.77855287125076  -10.47431789363848
C         -21.07944953859344   11.56322313580660   -9.56094467610736
C         -20.54111600866544   11.63096816293944   -8.21581704689862
C         -21.21495634103631   11.47382399024468   -7.03993938894593
C         -22.60051875249858   11.21316739647545   -6.99577371855670
N         -23.72665429914526   11.00113510588103   -6.95333122660667
C         -20.56935154982602   11.55917830385338   -5.78881451553669
N         -20.04758043450820   11.63069902534812   -4.77011212594852
C         -22.31683675446768   11.34376512342843  -10.19679200378849
C         -22.19351978514048   11.39619499281932  -11.55155978058144
S         -20.57727361789517   11.71261451386476  -12.09265314666349
H          12.18383815397456    2.55061490533493    3.72996472969376
H          11.71898117027503    2.87587049429957    1.17598169657657
H           6.64612099777426    6.23786614721893   -0.09360454082412
H           4.55610779838290    7.46933440369879    4.09889977507793
H          -0.76117383314728   10.41208532353528    2.77124355800727
H          -4.98720133594879   12.95668538859772    0.88984040582123
H          -5.53835187039896   11.28323386088569    0.91474706980215
H          -7.63046793298182   12.75198745157450   -1.08365542444906
H          -7.42766597849836   12.62237610088281   -5.00867696282528
H          -9.37296983441914   12.74483015005439   -2.64213384880362
H          -9.07024310620341   13.02693417730524   -6.54795291011516
H         -14.38731984856050   12.69372964572373   -9.68564646236666
H         -17.98052980751517   12.04819576039113   -6.50207133260748
H         -23.24489675661917   11.15719712309090   -9.68817762132571
H         -22.96210039206042   11.26674720165645  -12.28687343148376
