110
 SCF done       -226.924846481251          0.000653455527
C          -0.21248818949576   -0.51579439547859   -6.49913034962314
C           0.33058940157151   -0.81225120096470   -5.28630046516926
C           0.18729173006449    0.26015320941928   -4.38478683768797
C          -0.47299668568946    1.35340047601224   -4.95697432286377
S          -0.91189873491510    1.06776133691611   -6.58141511623506
C          -0.56762977677207    2.38736790519887   -3.98258480993231
C           0.03497749379556    1.94197271353885   -2.79904343461021
C           0.52631369564282    0.58449231451080   -3.01134391005739
C           1.16461967538330   -0.21037882844093   -2.10545771235687
C           1.43251272700420    0.21485909457504   -0.78702760092786
N           1.65436199622047    0.55416286074714    0.28543911077974
C           1.59551722320815   -1.51547786364070   -2.42425388265449
N           1.94821951081827   -2.57649858497188   -2.67865416945771
C           0.00456559452617    2.89386504955445   -1.77773903929706
C          -0.62048161589770    4.06049043260299   -2.17990555424557
S          -1.17921513256003    3.97354391667453   -3.84317604525629
C          -0.81820442070256    5.24639017692593   -1.42251564159471
C          -0.36623712887698    5.51843065273600   -0.14361815822035
C          -0.72466744112718    6.80167059298400    0.27326522623953
C          -1.46000734140001    7.50694818173512   -0.69195873340951
S          -1.70893661731040    6.59459804262899   -2.11258458037722
C          -1.75426585653648    8.79880779871442   -0.18523165598252
C          -1.19757196282034    8.91441511076529    1.09785724857681
C          -0.54208395310801    7.66049692349399    1.43523706037620
C           0.10329623999463    7.35432577442101    2.59621160615352
C           0.21251438551551    8.27456886679197    3.66056479593022
N           0.30221027731206    9.01778898647863    4.52886429906021
C           0.70295446174234    6.09558048081282    2.81457861337616
N           1.19098809818112    5.07437266396191    2.99688290908441
C          -1.41158402650686   10.17057740930254    1.67054534261322
C          -2.13069028850969   11.00227503187028    0.83725051312913
S          -2.55546614891969   10.22279678216314   -0.68035199040624
C          -2.51370204985077   12.35128012708158    1.07157170281649
C          -3.30555273862899   13.14268384764793    0.28968823332478
C          -3.46940611694258   14.45499622973635    0.79193077503161
C          -4.23965806121982   15.50056510490377    0.24327174490598
C          -5.08423401191844   15.27729702584466   -0.91207089905597
C          -5.87535905665110   14.19476059773088   -1.17237490860006
C          -6.56894822921290   14.30955031360601   -2.39631745699122
C          -6.31742888283172   15.46221210660305   -3.08203759534691
S          -5.20153728536003   16.44715182950208   -2.19801862786191
C          -6.86797836009551   15.91048154255271   -4.38547155258085
Cl         -7.63971088144772   13.08364564355083   -2.96166963159134
C          -4.15197165532570   16.73210492016198    0.87989825123672
C          -3.38804338407455   16.95039531179552    2.05396826757456
C          -2.67882811747647   15.88498505477007    2.64680986000459
C          -2.72601375299683   14.66486756451262    1.97961875804271
S          -1.91785820415400   13.20377859830422    2.48167172442824
C          -1.95168684228004   16.03213513912592    3.89068020728299
C          -0.76504972053043   15.45808217053823    4.24763731007670
C          -0.37881238416748   15.77358785355715    5.56831902754728
C          -1.25863348301212   16.57185883694007    6.23969901967348
S          -2.59957665950722   16.96201089394348    5.21766861319962
C          -1.17553123604798   17.09043000473056    7.62793672481692
Cl          1.08541214169613   15.18886348647491    6.25918602405922
C          -3.44118265948511   18.30173050200357    2.46920154777753
C          -4.23744476872960   19.08569557277508    1.68394453221559
S          -4.96960427720080   18.18398026709295    0.37327868196860
C          -4.48603717057306   20.47968156991023    1.80793415109281
C          -5.35257150051915   21.24618979358133    1.05594497635638
C          -5.32460504848828   22.58995485840043    1.43471619523360
C          -4.42231391572184   22.84403496786924    2.47970068328179
S          -3.62216767928328   21.43045445798698    3.00701070746291
C          -4.44762079730660   24.23327167372821    2.77167484330633
C          -5.37086556054022   24.85334902547206    1.91549867494596
C          -5.96040545392147   23.84041018542456    1.05299732001110
C          -6.91346585012204   24.02622559911401    0.09548358784679
C          -7.46422127088727   25.29640026203283   -0.17616897971469
N          -7.91260423356926   26.32821662305384   -0.39786648758718
C          -7.41566088908834   22.96297461041415   -0.68436193856888
N          -7.82974621943698   22.10442456465756   -1.32162072662873
C          -5.45434209056509   26.23244836766313    2.11192969689606
C          -4.59917427768944   26.66502593156046    3.10723306648039
S          -3.68176084026386   25.34478020549611    3.81865635133986
C          -4.40487997481732   27.99511438035063    3.56223566630321
C          -3.53025798536923   28.43723390038254    4.53620643974042
C          -3.60292556232997   29.82046803431584    4.71177260678229
C          -4.53886970933232   30.42997277152322    3.86675879686691
S          -5.33284817042810   29.30885464447949    2.85369166042229
C          -4.53290586992266   31.83145945302179    4.12261716504970
C          -3.59417897612622   32.09855657701470    5.12602145714748
C          -2.97629109908403   30.85046701122001    5.53277625351356
C          -2.01153568922757   30.66846874022177    6.47993009665150
C          -1.47109146661009   31.74105412748352    7.21979186382744
N          -1.02864915785457   32.60902878898026    7.82440532655935
C          -1.48943851940025   29.39315575163846    6.78111823279999
N          -1.06293009796979   28.35765897486110    7.02777711996939
C          -3.52140115157775   33.46897552755254    5.44222100581529
C          -4.38919585935829   34.19786791397106    4.68761263985890
S          -5.31580376390010   33.24511049641253    3.57509885831817
H          -0.24946464071717   -1.13630947516853   -7.37193419169036
H           0.80616556714090   -1.74845543252703   -5.05813266772457
H           0.41121708253234    2.75241986321515   -0.79367936689445
H           0.20017970942979    4.81842989958327    0.44191872338652
H          -1.06832527896685   10.47993462990223    2.64137954012242
H          -3.73660555831736   12.79986558768313   -0.63346547142658
H          -6.00149057383627   13.36527560025065   -0.50145802712490
H          -7.48844193084732   15.12611219777091   -4.81173277997114
H          -6.06406839013158   16.14670956027858   -5.08129938161906
H          -7.47272175547563   16.80778298436686   -4.25582593054098
H          -0.15953224730495   14.86124587626876    3.59165861655544
H          -0.27167356737590   16.71761234063092    8.10290913431487
H          -2.03963030881094   16.77118400375599    8.20970511647742
H          -1.15371239079452   18.17992053003407    7.63085233673690
H          -2.90007208854804   18.69402619992059    3.31072928802503
H          -5.96396566170445   20.83120560406764    0.27492016071093
H          -6.09500599190434   26.89981491137516    1.56394316226087
H          -2.87957003417696   27.77504181620543    5.07867206119223
H          -2.86898630853583   33.89564718021686    6.18187286005541
H          -4.55059629480311   35.25692387085087    4.71061645817116
