91
 SCF done       -168.889029624022          0.000821831418
C          -5.56442739141804   -6.60676949585657   -0.77368874765808
C          -4.23897569379585   -6.30311144869830   -0.79662206305009
C          -4.02003449682450   -4.92601885444389   -0.59474176788475
C          -5.22375100606998   -4.21366777345281   -0.42058982918461
S          -6.59480493023568   -5.23361945285900   -0.50660217340685
C          -4.92214095653282   -2.85113307238809   -0.22093699986935
C          -3.51864791170544   -2.69556819345712   -0.26931206715003
C          -2.91527853030785   -4.00633911371313   -0.50809944852495
C          -1.57873031191786   -4.28143349817277   -0.61939504263049
C          -0.59033727272380   -3.28356561068192   -0.51648852719991
N           0.22465287057880   -2.47911692164834   -0.43750727270265
C          -1.10097820888951   -5.58729245522992   -0.84536358909538
N          -0.70590847901257   -6.64881128241239   -1.02964226325131
C          -3.09996518526381   -1.39417340360367   -0.07573036673910
C          -4.17108198035987   -0.51546865689397    0.12987607846406
S          -5.72193886195703   -1.36678754185852    0.06577426061337
C          -4.18180104949341    0.85498341401719    0.38321936452752
C          -3.10546022217042    1.71643618395082    0.49707695575378
C          -3.19840460125254    3.08831404272876    0.80574731080904
C          -1.99081965327024    3.73008147509049    0.89259783655305
C          -0.89189868191499    2.89527339289258    0.64581031842312
S          -1.42242702778417    1.27245199107450    0.30050062914843
C           0.46629262338392    3.22460761404660    0.66585962339983
C           1.05399353122559    4.44834617555588    1.00218737755742
C           2.42909329439273    4.42923017421996    0.94833230462104
C           2.96536234075269    3.19855493000904    0.55722004507113
S           1.68846510402883    2.04693733123561    0.26282013664983
C           4.32047846975888    2.88085077760852    0.41246546978098
C           4.79146144475747    1.67565027921677   -0.03647709514336
C           6.14525222475051    1.34736332568574   -0.16433975143757
C           6.67459265415010    0.15862064417850   -0.67419873977128
C           8.05042911199695    0.11336360740932   -0.67366665871848
C           8.64649968499580    1.26478009892106   -0.14912568502666
S           7.43252747646160    2.42054804721351    0.32781192315457
C          10.00852486824324    1.52670347727890    0.03002611040415
C          11.09706393820535    0.72200743426992   -0.33206162458903
C          12.31162500332345    1.25816713399820    0.00956865339856
C          12.22668925320833    2.50356316551889    0.66153338179204
S          10.55590798646667    2.98765428302121    0.81330560118550
C          13.29565977856747    3.24316594397708    1.13807199532500
C          13.24498179218150    4.45576412485614    1.81865917402048
C          14.35356982987112    5.14933033606123    2.31812713411106
C          14.03949593408896    6.30445480588776    3.00718811382431
S          15.21234105443400    7.42602480255423    3.65533334729378
C          16.75397704537292    6.88144613702960    2.86659734253201
C          12.64715994542620    6.56169495941924    3.05959496167320
S          11.77804810978309    5.31413566275861    2.18608376229899
C          11.90430290873075    7.62132791307332    3.55661897820748
C          12.24824482599427    8.60019964029160    4.48339697321671
C          11.67005827470838    9.92728298984659    4.49542653867786
C          10.69007672878961   10.42123845705346    3.66668818930820
C          10.04298586143450    9.71828780727927    2.63157687131815
N           9.47617451794695    9.23483965597853    1.75580264887425
C          10.17778298249448   11.73185710318027    3.74054744298215
N           9.69928065524477   12.77652144441399    3.74429606555193
C          12.37626214536570   10.69383798220164    5.51669321304316
C          13.31507627612817    9.84696687817546    6.14460698948051
C          14.14900710169833   10.33213489682695    7.13575827437102
C          14.03824337228189   11.66648737400971    7.50232211541365
C          13.10764211303401   12.49583893570162    6.89711376667174
C          12.26828504961784   12.02013259910109    5.89907750728569
C          13.17543835421981    8.51058630454815    5.57966757155411
C          13.66432444558587    7.35654354075581    6.15355211007681
C          14.55061075060732    7.32995800778010    7.24611371237722
N          15.29101936117683    7.22775971923896    8.11892843657827
C          13.27718350801923    6.05552084281031    5.78671611814153
N          12.97612931674565    4.97030671602412    5.55737382831664
H          -6.02138406760131   -7.56807726376327   -0.89808426802500
H          -3.46254449046001   -7.03035051438590   -0.94962700771749
H          -2.07373026481328   -1.07889445858518   -0.07596974687112
H          -5.15653496171967    1.30521102812799    0.52408424960089
H          -4.14936445986881    3.56593680906023    0.96229502612565
H          -1.87853095693544    4.77402144787206    1.12248562622425
H           0.47449005092204    5.30892544621781    1.28320965722004
H           3.05427529763745    5.27353515237787    1.17865531953459
H           5.02977053380046    3.65690722519687    0.67168339772723
H           4.08053100337314    0.91038598811159   -0.32291535894777
H           6.04404075581211   -0.63638005236242   -1.03097585602691
H           8.62510258398439   -0.72296166324201   -1.02786047550800
H          10.97459870182992   -0.22220305373130   -0.83105007047660
H          13.25850632798194    0.78658072811791   -0.18480150601408
H          14.28014884375692    2.82048960982392    0.98314844385419
H          15.35040602689054    4.77421642530229    2.17744319800028
H          17.49086823535218    7.63724726314278    3.12077761266182
H          16.62295593394084    6.83371900056701    1.78997749396018
H          17.05852526875289    5.92206537304705    3.27400046351287
H          10.92172959681314    7.71281274275587    3.11003086193065
H          14.87955567122032    9.69862690769581    7.61155512500772
H          14.68706683082035   12.05985571812911    8.27026339915140
H          13.03293224804930   13.52894849032509    7.20125378768394
H          11.55177382419408   12.68081384549554    5.43965377750722
