99
 SCF done       -193.384969447337          0.000634252474
C          -3.53073961179016    3.26364823407271    0.85279548613512
C          -3.36539384068599    4.04225115960395    1.96358403475580
F          -3.24076891129020    5.37173822495306    1.84207522744133
C          -3.32384677037124    3.46178604919012    3.24665027574076
F          -3.16043082703484    4.25076801084870    4.31877054101334
C          -3.44814410330956    2.10962411338330    3.40172754149988
C          -3.61996535761971    1.28056781981053    2.27643807539600
C          -3.66309786912337    1.86604049172841    0.97826235528373
C          -3.83946735508145    1.05493002076290   -0.16656310236249
C          -3.97111158472540   -0.30064231608010   -0.01730682325664
C          -3.92140070647627   -0.87418495342144    1.28136842032513
C          -3.75086183599902   -0.12010409881018    2.40553834128011
C          -4.07828071467723   -2.33894326586726    1.17998232134091
O          -4.04938288793727   -3.11325428856963    2.11446808497510
C          -4.22484267897620   -2.62937391773034   -0.26165720791367
C          -4.17709951868154   -1.37440099008238   -0.98729987236409
C          -4.34770372471451   -1.18020258984972   -2.33622685982391
C          -4.61750310091926   -2.17311619357036   -3.30044763524314
N          -4.85321007114788   -2.90512974765836   -4.15468904570819
C          -4.29796054501191    0.08183908416597   -2.96402013652439
N          -4.26671710832711    1.07289851478898   -3.54347427662370
C          -4.31915926232732   -3.85774678862517   -0.87241806658491
C          -4.48551018476702   -5.14599119430879   -0.34683964784936
C          -4.71296823153947   -5.62621672416232    0.94031307083168
C          -4.89384853913303   -6.99823923921864    0.96849818162083
C          -4.79727951447313   -7.60330663168792   -0.31408722143667
S          -4.49150793322847   -6.46669018904559   -1.54002029079552
C          -5.00620712141710   -8.98571891622305   -0.17171732730517
C          -5.24203889965354   -9.27427139778162    1.18700147420796
C          -5.17641653005175   -8.03083039413134    1.94554915579886
C          -5.36283462791271   -7.88938019826459    3.28998636320120
C          -5.63086517000769   -8.99830201954834    4.11953112203402
N          -5.84565491784641   -9.90216737964771    4.79232749323529
C          -5.32068291773867   -6.64542833170982    3.95586287942818
N          -5.31181843287340   -5.65676070080624    4.53571100605562
C          -5.49044966471552  -10.61866889250637    1.42767901714625
C          -5.44803318974439  -11.37672877226863    0.26364619862244
S          -5.08391144924859  -10.39417647154237   -1.14887526057855
C          -5.68658666456850  -12.76424736441984    0.15033592448402
N          -5.59591150978902  -13.44407674233805   -1.04722840917259
C          -5.91275936404411  -14.74706490656839   -0.82684454216650
C          -6.06594881112936  -15.98574240679984   -1.43743331872606
C          -6.46439332404985  -16.86995988171261   -0.42426481965982
N          -6.54698397173549  -16.18681797411169    0.77132642589967
C          -6.21327996293296  -14.88927562201138    0.55485923352906
C          -6.06868954455935  -13.65234061140529    1.16755162234213
C          -6.78648922480254  -18.24781421740394   -0.48176539715307
C          -6.71221605518788  -19.03646453053386   -1.58263098167355
C          -7.07665787292192  -20.40513190040037   -1.59340478941355
S          -7.72449300827071  -21.17602337913880   -0.17017922820914
C          -7.88949677009246  -22.69596470995826   -1.00666962380096
C          -7.43864609961113  -22.59433205140256   -2.31477076771972
C          -7.00069629724284  -21.30282590951826   -2.64861220705408
C          -6.49213777819405  -20.94453288192028   -4.00874671597386
C          -6.85172085733493  -22.01268076240299   -5.03984124611769
C          -6.54163119577049  -23.40849480666538   -4.49998045869545
C          -5.07861940283825  -23.58043638725580   -4.17382154296220
O          -4.18801295094369  -22.87296089032989   -4.54730504995432
C          -7.42168137364919  -23.72962832391486   -3.28864505234393
C          -8.45991567380502  -23.78725960965384   -0.30298702720204
C          -8.84223187342947  -23.77472396329628    1.02915575164420
C          -9.40852495352901  -24.98215392216568    1.42994124661278
C          -9.46493485239552  -25.93025007726151    0.40134655633279
S          -8.81828602977977  -25.33251424770471   -1.06317374622993
C         -10.05891752144371  -27.11712542764188    0.91347444173494
C         -10.37924010466967  -26.91132400259674    2.26183390805526
C          -9.98580882695528  -25.56907628475442    2.63645142711788
C         -10.12490230030084  -24.96476369860064    3.85217175032262
C         -10.70516709150168  -25.62233453928431    4.95680307594428
N         -11.17663473017891  -26.15198542386335    5.85815711572476
C          -9.70049446895028  -23.64025794755216    4.08490706857167
N          -9.35818145241818  -22.56261530856831    4.27775196841942
C         -10.98101317464710  -28.04203774162774    2.84938335675800
C         -11.10236739053072  -29.06061279702892    1.95594434237825
S         -10.49142347385412  -28.67886835001928    0.37718445485971
H          -3.56154931849742    3.72409499262114   -0.12239459109280
H          -3.41456872873575    1.67997561483302    4.39066173399874
H          -3.86449887069639    1.53165388481559   -1.13268693151141
H          -3.71954464629592   -0.58712895835584    3.37817431305333
H          -4.26814084083315   -3.84844152563729   -1.95487552214129
H          -4.73436518299225   -4.97717557440712    1.79753307632745
H          -5.69536233442397  -11.04564090039240    2.39095119425583
H          -5.33840797707652  -13.02212038022664   -1.92310457469970
H          -5.92195349832720  -16.23639624847988   -2.46829602998434
H          -6.80973216381318  -16.60364861261888    1.64804127047886
H          -6.21841616309623  -13.39873401879252    2.19667538413509
H          -7.12489880460816  -18.69464726500579    0.44567071954204
H          -6.35546784283656  -18.62539674413510   -2.51507199241826
H          -5.40453277420894  -20.83674200105168   -3.96513966787150
H          -6.90489585237887  -19.98240911069902   -4.31958893103952
H          -6.28138342120464  -21.83660474066206   -5.95240960819937
H          -7.91509391800489  -21.95500989319697   -5.28061721496136
H          -6.74572817708723  -24.15677186260919   -5.27770504197067
H          -4.87425780780390  -24.47591603142710   -3.55139107700976
H          -7.05654790641724  -24.63665174581181   -2.79800348397672
H          -8.44446915045414  -23.93441350930872   -3.62157691804016
H          -8.70596557005196  -22.91434889202486    1.65910068447418
H         -11.30669265857278  -28.10227628573616    3.87172435046831
H         -11.51911472138793  -30.03411571188087    2.11900021773492
