100
 SCF done       -212.938211799839          0.000941129151
C          -8.04932259616110    2.74090747628090    3.81110772546007
C          -8.84132299640403    3.56987401315188    3.06732610733802
F          -9.13490396831272    4.79865185902090    3.51230432079635
C          -9.35954868148580    3.14518694362748    1.82727334622663
F         -10.13575464771212    3.97829093405439    1.12135024741381
C          -9.07698537887994    1.89708242480362    1.34727049260086
C          -8.26501230326422    1.01896829425843    2.09101366567084
C          -7.74100392029820    1.44678949050022    3.34548649363353
C          -6.92675019242211    0.58143088267520    4.11151057073486
C          -6.64807238134591   -0.67343793710287    3.63753325416226
C          -7.17806794052105   -1.09283158598178    2.38649783036369
C          -7.96452604911724   -0.27955717086924    1.62294210330953
C          -6.75534680486897   -2.47966546596318    2.10707424588639
O          -7.05148333364876   -3.13172563408067    1.12933796400281
C          -5.98403292465702   -2.90509120004834    3.30046335801298
C          -5.86162639477224   -1.76903053034210    4.19440321050925
C          -5.08136662195138   -1.69769901177590    5.31928295444551
C          -4.24339774607018   -2.72989528206736    5.79190522184201
N          -3.52563170068875   -3.51618328964828    6.22266225802375
C          -4.98405475815129   -0.55336786470882    6.13840855253998
N          -4.86980141337282    0.34347104456715    6.84571943412841
C          -5.63205553700466   -4.18736698364604    3.62731705317415
C          -5.61857214922274   -5.33793175398052    2.81629981168286
C          -5.57735981111591   -5.49429799776747    1.43591595541237
C          -5.54645323650501   -6.82997360937051    1.06165905421183
C          -5.57343240590064   -7.71683322858626    2.16320018976799
S          -5.58746229247583   -6.89894747474238    3.65167094704943
C          -5.59755809536142   -9.04195823993892    1.67207758919989
C          -5.57154779713512   -9.00284972532827    0.26593322474753
C          -5.52049628512604   -7.61182226996566   -0.16281571324401
C          -5.44864721373745   -7.15060165597975   -1.44357685506857
C          -5.43635926097635   -8.02773759721929   -2.54939911209895
N          -5.42709021936712   -8.74538350006787   -3.44354608231842
C          -5.35789778349240   -5.77716707212623   -1.75932082811569
N          -5.26109433139341   -4.67079905797921   -2.04188925004897
C          -5.61610810921232  -10.26877093381487   -0.31243434884824
C          -5.68726819558936  -11.27092601492877    0.64138583003174
S          -5.68054043987559  -10.63878719628281    2.27922067976286
C          -5.79193036631665  -12.66573430967074    0.41763344724474
C          -5.96835915399898  -13.65958181319084    1.36452736582399
C          -6.07931570423189  -14.91995325970896    0.78168821379181
C          -5.97648056290764  -14.88630311849495   -0.62133215840144
S          -5.74748892815667  -13.30485580817055   -1.22081201322341
C          -6.12614899396183  -16.20395285065354   -1.11981235135910
C          -6.33204649199597  -17.07113336957269   -0.03018730298899
C          -6.30256832667640  -16.29551229232784    1.19929058860622
C          -6.46024537082323  -16.75503862850421    2.47333324262957
C          -6.67617491635157  -18.11923757379737    2.76402884126643
N          -6.85389039140668  -19.22451164228927    3.01187188884618
C          -6.41825833501906  -15.89096577531248    3.58832218494968
N          -6.38681195211179  -15.18718601853952    4.49292432328429
C          -6.52411421756133  -18.39470006125609   -0.41587722870803
C          -6.45949109319709  -18.55021539489593   -1.79227643093063
S          -6.15505589917784  -17.02428384844069   -2.61570194624382
C          -6.62528608314869  -19.71875711192879   -2.57288100379201
C          -6.90875279813276  -21.01622008654314   -2.14615372862869
C          -7.05331515918213  -21.90181830614122   -3.22040768265570
O          -7.36207170233307  -23.21170079141722   -3.16237552627618
C          -7.86080477428071  -23.69590185796567   -1.93177468694095
C          -6.96251374799931  -23.32586292127752   -0.76536157804890
S          -7.03887124681736  -21.52859294989336   -0.47011290359820
C          -6.84661205959843  -21.30689374282521   -4.48014059589637
S          -6.48434923177663  -19.61276524886345   -4.30443298380372
C          -6.97842926187149  -22.05004875610871   -5.65757273350542
C          -6.81528230243317  -21.65497631754234   -6.96117098716101
C          -6.99873661065695  -22.47975519918319   -8.13803242735506
C          -7.43375418542038  -23.77988243247001   -8.18240022804224
C          -7.59244692809740  -24.51881115443873   -9.37351376386245
N          -7.74229814793964  -25.17315049174343  -10.30491315096269
C          -7.79547010456416  -24.56789196951510   -7.06966503409017
N          -8.11717172010101  -25.27793546701766   -6.22563134653959
C          -6.65353390778306  -21.66394102116007   -9.29916988663955
C          -6.28433012824959  -20.36977985161073   -8.85386167436735
C          -6.38594953944422  -20.32122966791292   -7.38585605302507
O          -6.15048209902132  -19.35763452828137   -6.67522300327718
C          -5.90436167986227  -19.36774416020861   -9.71284639286789
C          -5.88825604569341  -19.65512699446637  -11.08188395024199
C          -6.25992356035451  -20.94885305649697  -11.51909628317082
C          -6.64356109940764  -21.96227381160640  -10.64856544237112
S          -6.17164697655874  -21.08865779935315  -13.24832671743083
C          -5.64379400701326  -19.43054995521065  -13.35956976282682
C          -5.53818992018118  -18.80254754421914  -12.16413934747852
Br         -5.28225201703371  -18.68562660566333  -15.04203533387393
H          -7.65997309169892    3.08221233245971    4.75758432525637
H          -9.48086358812750    1.58667417077941    0.39635734918778
H          -6.55157955622258    0.93162244081149    5.05947136252449
H          -8.35214714839914   -0.62381801585513    0.67622077488222
H          -5.36070936092019   -4.37331413951033    4.66034282279367
H          -5.57038262252296   -4.66412559591032    0.75506345012159
H          -5.61000711487754  -10.47118497071193   -1.36837997253272
H          -6.02149934766710  -13.45592194262879    2.41907887908119
H          -6.70547554383527  -19.20605925114508    0.26295685441944
H          -7.90820931127398  -24.78005716732491   -2.05851627273892
H          -8.87397976781044  -23.30811982709718   -1.76187066224901
H          -5.92724710749500  -23.59996738480706   -0.96991940622165
H          -7.29803036825665  -23.79687478080826    0.15550242315776
H          -7.24901461350424  -23.08200652287001   -5.47046851835894
H          -5.62874739203917  -18.39332406109369   -9.34120734144531
H          -6.91611684579080  -22.93073123088651  -11.03304128312430
H          -5.22655355508813  -17.78052256442048  -12.04874274584974
