89
 SCF done       -187.862662043930          0.000723151030
C          -0.79753846536565    3.63105522539985    0.87246868580935
C           0.39535299132541    4.07369522022133    1.37112095384128
F           0.70369995319819    5.37623427935335    1.32206354727123
C           1.31489039550744    3.17004804397885    1.94105319863037
F           2.47695324457983    3.63295799447261    2.42053982300119
C           1.02837366244523    1.83521160289078    2.00424030032164
C          -0.19191225829076    1.34788842592497    1.49719473752198
C          -1.12339123824781    2.26056526442601    0.92187037972207
C          -2.35509040497267    1.79477244843493    0.40757904085631
C          -2.64445720492924    0.45660300496867    0.46522202983563
C          -1.70530523530537   -0.44687282851765    1.03349457943362
C          -0.50968115832241   -0.02759210328661    1.54125528548632
C          -2.23147447128950   -1.82393528592401    0.95959726968839
O          -1.66496888585919   -2.82260179291341    1.34582378723951
C          -3.53291571450773   -1.71330488535314    0.25427341797974
C          -3.80844156507179   -0.30575847039678    0.02574465987573
C          -4.97978427340876    0.23176437647011   -0.44037394384816
C          -5.19395494002106    1.61451012947748   -0.62176171969702
N          -5.42507164000971    2.72489248458366   -0.79784941202675
C          -6.14032752956761   -0.50243805046262   -0.76544968077568
N          -7.12615961407573   -1.02879580601609   -1.02970159811905
C          -4.26204376325966   -2.73805839220303   -0.28450018004808
C          -4.13892062412986   -4.12715707212374   -0.08140826139861
C          -3.53426512912450   -4.86658348003027    0.92755082457071
C          -3.66519210673169   -6.23323161361762    0.72299442346654
C          -4.37550013185815   -6.55270448751674   -0.45430980782721
S          -4.91598535888756   -5.17172760539224   -1.28010324800343
C          -4.38759519778992   -7.96314675600437   -0.60164758973715
C          -3.69599706199693   -8.53341937870372    0.47957751536024
C          -3.25261464001604   -7.47119597361300    1.36816654310733
C          -2.62552848686926   -7.61072498449112    2.56956607057752
C          -2.33204143481281   -8.87888904314556    3.11817144906665
N          -2.11154191970589   -9.90215617403134    3.58501854447395
C          -2.27735208928442   -6.50852145556494    3.38141691883019
N          -2.00461509473177   -5.63212787249228    4.06754715137525
C          -3.60321918415867   -9.92395530402967    0.38727580386664
C          -4.22969593500036  -10.40468666311535   -0.74315949416252
S          -4.95338710428835   -9.13215405946393   -1.70706941173301
C          -4.25280620108042  -11.77157901558051   -1.19561829901310
C          -3.20454306265068  -12.65332842174444   -0.97790686666222
C          -1.99614309056903  -12.38202875962634   -0.33190026311911
N          -0.99872907892578  -12.16602674900513    0.19304485759304
S          -3.47918515355185  -14.20632090301675   -1.68606705191264
C          -5.03469910806387  -13.70839045807889   -2.27987045933077
C          -5.30141337358327  -12.38532435083491   -1.93874509341488
C          -6.48205864775302  -11.69825714369085   -2.26240249388436
N          -7.43541244645013  -11.10309897294179   -2.49847899023038
C          -5.82950950241656  -14.63301044814495   -3.03135483145580
C          -5.26747955610246  -15.79188868358614   -3.51505572016347
C          -5.92490092598115  -16.74266852349437   -4.29027498943390
C          -7.37353729289788  -16.65326664635329   -4.50707983175391
C          -8.12529466378528  -15.59824704264594   -4.11558703014018
S          -7.51184473263633  -14.21770585962964   -3.30880428981528
C          -7.73140645469861  -17.84941326248608   -5.18556510749411
C          -6.59009090107228  -18.62599085840082   -5.40168721705381
C          -6.88245336192652  -19.82232979345443   -6.09132502452862
C          -8.20880798062617  -19.92301028475286   -6.37052000930632
S          -9.15113574303175  -18.57978953857757   -5.81929430146614
C          -5.44301533706958  -17.93295501129417   -4.87990876728862
C          -4.11044093362854  -18.38815625481795   -4.99484843721793
C          -3.01694329912109  -17.59081535939452   -4.84968276081595
C          -1.67371758912477  -18.01349494774672   -4.87694728414867
S          -1.19920692514591  -19.61664721752913   -5.36019323369459
C           0.49398274778359  -19.25456171619162   -5.16916786317165
C           0.67699412759832  -17.95444964500441   -4.74388206075543
C          -0.54616669198745  -17.24799550861940   -4.56459457287111
N          -0.55848787259616  -15.92691308843942   -4.07733731219188
O          -1.63212874768564  -15.41487398870438   -3.77314094794108
O           0.51083575865515  -15.35689635656060   -3.97197778324528
C           1.96414366138118  -17.42903256842369   -4.50833106996542
N           3.05067197109964  -17.10300300646059   -4.34398418991683
C           1.52059407314892  -20.22142698871113   -5.43251987441123
C           1.29221811940670  -21.46506370017013   -5.84896781655681
H          -1.49038190828084    4.33662346131364    0.44113709402844
H           1.74214044580215    1.15580255947894    2.44314159846364
H          -3.03524414786372    2.50957057494392   -0.02653372699465
H           0.18230461054871   -0.73685676203333    1.96917659242483
H          -5.02311059179455   -2.46859589856300   -1.00815370174558
H          -3.02339569500198   -4.41472040136816    1.75684726340255
H          -3.11454861985906  -10.55580630144526    1.10606938819933
H          -4.23205972762716  -15.95759639460988   -3.25566223016285
H          -9.18527495030546  -15.54082879626739   -4.30780782143933
H          -6.16001628759163  -20.56921739080869   -6.36565697612146
H          -8.71227847994172  -20.72135441347497   -6.87982244574748
H          -3.97136076363677  -19.43608376374694   -5.23378177994272
H          -3.14895759309996  -16.53084025353202   -4.71249587035724
H           2.52911954593042  -19.86485924418647   -5.26819891477131
H           0.29168334333102  -21.83050764081787   -6.01672894323940
H           2.09796864950028  -22.15187722288326   -6.03370513408906
