92
 SCF done       -179.759127211607          0.000980851039
C          -5.53913786252111    1.47264033690271    1.95164479821187
C          -4.23928729418450    1.07633678764816    1.89454606884601
C          -3.36771339755012    2.17727775098043    1.78098406372222
C          -4.05674747182652    3.40441276915075    1.75663626856329
S          -5.75002766126533    3.19504370816402    1.87251314272831
C          -3.11721985430053    4.45341084677671    1.64006587489713
C          -1.82762370227674    3.88641100670789    1.58966536664259
C          -1.95012188488750    2.43398297606810    1.69883446112298
C          -0.93032074074444    1.52480506027275    1.75284966912992
C           0.43191656249532    1.88314774682705    1.75643638344463
N           1.55192553333094    2.13102806640042    1.79632666196405
C          -1.17118852674172    0.13959999945365    1.86527511729774
N          -1.35778761149382   -0.98768237935505    1.96655257677574
C          -0.81875097753155    4.81915454088043    1.43915444223743
C          -1.30682931571017    6.12832736103369    1.37846723518398
S          -3.06917605554559    6.15996457037012    1.53093042464337
C          -0.62594325341546    7.33979619561644    1.21534087758905
C           0.71021513871416    7.50302978558039    0.90961651553856
C           1.39956727921054    8.72859049686564    0.76684982999660
C           2.71736646215855    8.60051954969357    0.41685028824247
C           3.12741315862769    7.26704602604599    0.25705566599554
S           1.80353102890995    6.17871614662578    0.58121318750632
C           4.35293298253113    6.71556430391010   -0.10280035495795
C           5.60093456071808    7.30286200257473   -0.36067995380223
C           6.57920137178718    6.39305753303437   -0.66950725207395
C           6.14657663768434    5.05029262369703   -0.67815630546631
S           4.44683663261562    4.98320220602540   -0.28115421507613
C           6.92824566302795    3.92893871606111   -0.89959695196665
C           6.49400530839848    2.60485681850389   -0.91304443308580
C           5.19278234749787    2.08472362913164   -0.89467550751463
C           5.17147716639067    0.70777782151860   -0.85508063298114
C           6.46583306524135    0.11834745642258   -0.83868844685248
S           7.70168359224423    1.30410083933112   -0.91776145747196
C           6.32389481427463   -1.26429701200547   -0.73571791763582
C           4.93610248253325   -1.58069682721030   -0.67781283608744
C           4.17683409255192   -0.34630216409069   -0.78569204680172
C           2.81944444137874   -0.20985948319740   -0.85213445979273
C           1.95361141704180   -1.31976274523049   -0.76777804952369
N           1.24635974026915   -2.22100826358882   -0.70671427862096
C           2.17764982284234    1.02620984786856   -1.07079906420496
N           1.62125341500370    2.00408816669673   -1.29529716579862
C           4.69496036218110   -2.93059256481961   -0.54496548406765
C           5.87586976268981   -3.68871109913892   -0.49954411993786
S           7.30996362654793   -2.66422842288334   -0.63905150909832
C           5.93986442629750   -5.06941865203447   -0.34715040600821
C           7.07136302299707   -5.86230562845441   -0.30827523147622
C           7.10230475190690   -7.25909966113606   -0.11813862632664
C           8.35934430691998   -7.79944158224610   -0.12216702931294
C           9.37813204546388   -6.85318290277223   -0.32493182737726
S           8.70011431539621   -5.25210311025135   -0.49828529927629
C          10.75126831560911   -7.05158757972899   -0.40601161059787
C          11.48146841784739   -8.24459260070784   -0.26222661471224
C          12.83045576106290   -8.08375332772173   -0.41312973305093
C          13.22945969983647   -6.75774903878029   -0.69197765788164
S          11.82427520684723   -5.71345960296528   -0.73824628190137
C          14.51907385922073   -6.32514183588939   -0.91546036978315
C          14.93986872244733   -5.03231943178445   -1.23296231219439
C          16.26426793744820   -4.64899954693403   -1.48249191623737
C          16.37374656815138   -3.30787672434874   -1.79742853740722
C          15.13319724535329   -2.63501502317512   -1.79060693532232
S          13.83057184104696   -3.67141836674850   -1.39241174256926
C          15.35891760606336   -1.28411972864647   -2.13089120781687
C          16.73578392249025   -1.09449919269524   -2.35476375590199
C          17.41806863159686   -2.34796870234122   -2.15474162179132
C          18.75730477337440   -2.60347634745083   -2.27458317710531
C          19.68174136506769   -1.60159542711208   -2.62891646373103
N          20.43840500327384   -0.78822961536238   -2.91704518747722
C          19.29845387659850   -3.88432945415728   -2.05337933522533
N          19.74259214089092   -4.92744723922341   -1.87460880425459
C          17.04238309592629    0.23537820490881   -2.70629380410610
C          15.92639466564171    1.01141944497195   -2.74283070589907
S          14.46464827329954    0.15668326773670   -2.35091739287952
H          -6.41205329099471    0.85694567735616    2.03659789586948
H          -3.92596567068957    0.04887716557733    1.92923236757774
H           0.22319925872155    4.56741004786362    1.39339930798305
H          -1.21370116339591    8.24338170986418    1.31296402276436
H           0.90550773884946    9.67100221689197    0.92585468286109
H           3.38707905693593    9.42785266726533    0.26328744761911
H           5.75789909325262    8.36523295968029   -0.30361019103605
H           7.59940918624035    6.65554422973043   -0.88838747613571
H           7.98863931023698    4.09804873294961   -1.03454957448132
H           4.30846641454256    2.69124142200568   -0.92774976663861
H           3.72262312943857   -3.38400350617968   -0.47531172978779
H           4.99010957073867   -5.57811710435863   -0.24170374321351
H           6.19874461638188   -7.82655073974435    0.01849890385355
H           8.56785739827920   -8.84599336460142    0.00819360063481
H          11.00444277171350   -9.18464451616829   -0.05109599000129
H          13.54908509810755   -8.88058371520510   -0.33800456913365
H          15.29938529575785   -7.07279173379566   -0.85274433430320
H          17.08148694229805   -5.34555115228299   -1.43117870361697
H          18.03032748858904    0.59979607734489   -2.92129476224448
H          15.85763509738171    2.05437959978335   -2.97922027834341
