128
 SCF done       -258.032510244225          0.000833997636
C           1.20164258690668   -2.75577089402059   -0.54467814923620
C           1.15842459426374   -2.36650500713755    0.75925261990369
C           0.92477786368205   -0.98235940249473    0.87309313466897
C           0.79646921758536   -0.35826426203858   -0.37225342838367
S           0.96049337260705   -1.45736952562244   -1.66712984533979
C           0.56589967962878    1.03294147580409   -0.16260632784485
C           0.55022466862282    1.27704896693519    1.21568063424572
C           0.77421305752541    0.01775813547792    1.91489456040127
C           0.82990230132671   -0.17342415141510    3.26434259691359
C           0.66368695421561    0.88503521625541    4.18212270505161
N           0.53509061628080    1.73767605786869    4.93817191203266
C           1.05679107038204   -1.44327645611507    3.83530879345072
N           1.23836819802516   -2.47537561044554    4.30085147034307
C           0.33552098778603    2.62250538314487    1.52706398075382
C           0.18968726296563    3.39619863560709    0.39463624706886
S           0.31541466312223    2.45026708275239   -1.07992412269152
C          -0.03155106485139    4.79944300877708    0.32575387785992
C          -0.16683735563617    5.57057714063098   -0.79280823911707
C          -0.37026812618799    6.94318749519481   -0.51613560878902
C          -0.50990529520590    8.00539638754845   -1.43270377721327
C          -0.53990637175538    7.80281026240599   -2.86679922324414
C           0.00698890954199    8.59589999887511   -3.83468604000524
C          -0.25776973937856    8.12883993649889   -5.14028951991591
C          -1.01309079621705    6.99394330943054   -5.19258404402966
S          -1.40512509822051    6.47183096227073   -3.58941299547273
C          -1.48082593542419    6.23900381333171   -6.38197287952643
Cl          0.33364448850231    8.93733183899018   -6.54037205060610
C          -0.63069869191941    9.28030796998405   -0.88866140341292
C          -0.62537944437419    9.53848972431405    0.50418391617870
C          -0.48150187974436    8.47640197441178    1.41948623863239
C          -0.37119727541148    7.20216100291063    0.87747851298923
S          -0.14907383890335    5.73993757985075    1.79775752121868
C          -0.44373054264590    8.71734078682363    2.84789078115722
C           0.21552311092947    9.70773652051493    3.51757540554943
C           0.02425728680139    9.63961182983088    4.91475332013118
C          -0.77660196127770    8.61428620365170    5.32604593478924
S          -1.30927965611572    7.69314439451295    3.96061402688195
C          -1.18966523177507    8.24810765361345    6.70387869057372
Cl          0.74962809171000   10.76936388593169    5.99492029536006
C          -0.82826756033760   10.90969980913837    0.78878735905368
C          -0.97393080963296   11.68547328329977   -0.32518766204638
S          -0.86867727165814   10.74690860734381   -1.80093247468370
C          -1.16130874939106   13.09388374864964   -0.38588433179976
C          -1.43623525071352   13.86318678886786   -1.49729089823410
C          -1.53241086870268   15.22099584238071   -1.18216077847544
C          -1.31722385068650   15.48097743832160    0.17960985181015
S          -1.01525230474157   14.05980061237775    1.07557797400670
C          -1.41311398926714   16.88134796666071    0.39477151917599
C          -1.69804894305552   17.50382116118086   -0.82970991962166
C          -1.78878920152714   16.48181872087760   -1.86135914836155
C          -2.06153494317506   16.66701561725801   -3.18445228967228
C          -2.30096587575296   17.94538713551744   -3.73149367572341
N          -2.49924631508505   18.98135078772867   -4.18109144260042
C          -2.12785429995682   15.59223136315282   -4.09632903925742
N          -2.18495160344808   14.72343375262542   -4.84231306706913
C          -1.79803685109248   18.89294047842834   -0.72213562536371
C          -1.58220712106738   19.32736049411715    0.56943474618578
S          -1.26165816573507   17.99987503791252    1.67564986818468
C          -1.58664661990924   20.66680800081400    1.04608370715372
C          -1.28210458384721   21.10869902599937    2.30200221643464
C          -1.37262569459064   22.51316738816470    2.44682503342410
C          -1.08420909804038   23.28845578515596    3.58844553718924
C          -0.73645767783305   22.66469396838907    4.84898786832926
C          -1.30222956206313   21.56411233823295    5.42613097177318
C          -0.70867641579642   21.23355053246460    6.66364912554758
C           0.30755811099985   22.06178006560862    7.04208880576426
S           0.54337138364767   23.29448892507393    5.84977767949411
C           1.14653020100531   22.01049298172498    8.26542304822696
Cl         -1.23773608775727   19.88980796448485    7.60372038643908
C          -1.16334443559987   24.66753038345977    3.43803253425331
C          -1.54533013601355   25.29882587509713    2.22834319909037
C          -1.83606201544205   24.52337170144834    1.08778488867489
C          -1.74989997766545   23.14457566866075    1.23581164929534
S          -2.00931744460566   21.97981103245497   -0.03395752839572
C          -2.18611642868945   25.14492224242537   -0.17365505691407
C          -1.61461620275519   26.23713067265212   -0.76066859135969
C          -2.21297141630036   26.56458532544514   -1.99658458806951
C          -3.23711320561314   25.74128196402226   -2.36455031654100
S          -3.47695227738070   24.51942844638571   -1.16266219942302
C          -4.08957368821354   25.80243962718253   -3.57835833063175
Cl         -1.67976836037931   27.89545109912782   -2.95217857400717
C          -1.62122285472037   26.70502399084847    2.36924799087362
C          -1.29194704944073   27.14828315798735    3.61801623587817
S          -0.87663483552757   25.83419529612871    4.69961799878946
C          -1.24690464561105   28.49034968375415    4.08726722771969
C          -0.89705232501060   28.92633333680265    5.34816448374918
C          -0.95115885028717   30.31882908108378    5.45257090041695
C          -1.34566879969347   30.93963770489603    4.26158833264370
S          -1.65012448304131   29.81887246524585    3.01092201793919
C          -1.36535660363357   32.34961928080706    4.47207164961201
C          -0.98225623596627   32.60910854950601    5.79229490101495
C          -0.70813154786047   31.34746551099390    6.45639553767977
C          -0.30455132219991   31.15764411134919    7.74544411583089
C          -0.09463469364418   32.23353272138057    8.63339550435088
N           0.07819830009506   33.10169385401693    9.36235556646385
C          -0.06711055437968   29.87343337156213    8.27913489789931
N           0.12784956675865   28.83318339318998    8.72052922689960
C          -0.97167879559233   33.98587996405353    6.08829768689656
C          -1.34003927541147   34.72742585113551    5.00748093270861
S          -1.70862600221814   33.77853645477357    3.60490514900134
H           1.36303978793645   -3.74198069517731   -0.93131050444183
H           1.28792826553352   -3.03870135673335    1.58758388305006
H           0.28611563219855    3.03321617563639    2.51949013730456
H          -0.10604811929756    5.15959638725021   -1.78381434943681
H           0.60954100465874    9.46262071168598   -3.63705335179637
H          -1.09036255821103    6.70247943231156   -7.28441388640535
H          -2.56950804249718    6.23410998815304   -6.43023213080514
H          -1.14261812040468    5.20432095093132   -6.33826923185073
H           0.85211430730960   10.43400416028156    3.04699429662369
H          -0.76533518399415    8.95303915457013    7.41439373091465
H          -0.84557113230049    7.24445396420479    6.95148887348290
H          -2.27515999457531    8.26166075680833    6.79576532512921
H          -0.89605051212127   11.30891718290845    1.78431154515245
H          -1.55812869695702   13.44055392593893   -2.47840234880876
H          -2.00980911792198   19.56786192011313   -1.53183532540019
H          -0.96845647167485   20.44648028225969    3.08836040667049
H          -2.13999928170382   21.03138196824268    5.01570824809678
H           0.83754975104914   21.17467878464311    8.88812605166102
H           1.04754663942668   22.93370444150906    8.83522903295831
H           2.19762909160510   21.88899585501037    8.00544374671949
H          -0.77006515246395   26.76513640924081   -0.35807301478299
H          -5.06588399486909   26.22664795013642   -3.34052190510408
H          -4.24560948509153   24.80570289253682   -3.98593213017913
H          -3.61503899112724   26.42840079797827   -4.33044041229341
H          -1.93187683401969   27.36762275563136    1.58200243406536
H          -0.61770452009897   28.25164114939287    6.13731233400975
H          -0.70833418524451   34.40825012142177    7.04067416821821
H          -1.42152814711333   35.79363716828481    4.93889206846304
