98
 SCF done       -182.175129856180          0.000863647747
C          -3.35543842629623   -3.28362273013429   -0.23662922780773
C          -4.53491006344063   -2.61814233882610   -0.11400309986847
C          -4.33626157150714   -1.22687329400437   -0.01328941275624
C          -2.97116350671943   -0.87620788628201   -0.06425309144074
S          -1.96032828611804   -2.24695813633428   -0.23440505282222
C          -2.85471295194439    0.52255747499831    0.04412777586960
C          -4.15469742157651    1.06795893273314    0.16471333151635
C          -5.12122028518917   -0.02952442557640    0.13032729657886
C          -6.48378977384215    0.07907442484836    0.21948365123199
C          -7.12683126395368    1.32311340655389    0.36081064403414
N          -7.65270405374372    2.33691364532428    0.47616925104804
C          -7.32859470413277   -1.04650076681685    0.17441729708595
N          -8.02286110861788   -1.95983890390336    0.14542161474073
C          -4.15732260839947    2.44149015550460    0.28054564680833
C          -2.86225489406108    2.98455124874470    0.25335335111263
S          -1.63696776188265    1.72735110807848    0.07532601112194
C          -2.56193871486381    4.33826501621484    0.36293904056568
C          -1.31625483101829    4.93963480403158    0.36143178345369
C          -1.06678444454156    6.31735003118775    0.50419380079945
C           0.26304549106808    6.65114525465359    0.48812876436406
C           1.11591416512684    5.55164005398820    0.32666116587012
S           0.19735932015811    4.07578025161718    0.19348124966131
C           2.51460845643391    5.54608254913663    0.27959133683698
C           3.38808015580438    6.62598828669705    0.42457606121498
C           4.71824894179842    6.27250478174534    0.34830774991353
C           4.93267694789799    4.91037819926178    0.13353026060598
S           3.40662987455424    4.06777080384353    0.03104934298431
C           6.16722338705122    4.25732877129382    0.01890738575691
C           6.31455859940909    2.92134029720699   -0.23284106009173
C           7.54228458545126    2.25200956803437   -0.32374695646232
C           7.73557210235342    0.89961358637203   -0.61088595467980
C           9.05800284848604    0.51231650940312   -0.61882259588510
C           9.94353132557586    1.55297824163225   -0.33054678948018
S           9.07590749582642    3.04141702195032   -0.06133271497468
C          11.33879898568552    1.49277197961955   -0.22832597205873
C          12.17073919782142    0.38230697971035   -0.41138436942572
C          13.50082942935498    0.65252771557142   -0.20845833057365
C          13.77269025559845    1.98676849216437    0.14461870973853
S          12.27770645482677    2.89631461801748    0.19850014760991
C          15.03227713967592    2.49019951933589    0.43061751081199
C          15.38330358021623    3.78390211341178    0.80019734063488
C          14.59373075529427    4.93561533368868    0.93837705677810
C          15.32783351628184    6.03016144270246    1.34064490942351
C          16.70492734986414    5.75315657644337    1.52779089090743
S          17.07938007086311    4.11661861477961    1.18588699595493
C          17.34015502716563    6.93098332169744    1.94916636547945
C          16.37816232600241    7.96595362166410    2.02458388320548
C          15.09217331522845    7.43750976823600    1.65392471757656
C          13.89098486261629    8.09653090463117    1.62382431073132
C          13.78173452581233    9.45382490265780    1.98233509427491
N          13.68775648154732   10.55753536974827    2.28346485301239
C          12.69050282390362    7.46307352738904    1.25176872127708
N          11.70490248201796    6.95786921698162    0.94939890891448
C          16.92694049516084    9.18354044360951    2.44076139403338
C          18.27607776122898    9.09627976514497    2.69648170564148
S          18.90087974150565    7.47135337396705    2.38933598550481
C          19.18391083534381   10.13195940940604    3.12718169116314
C          20.53632058693409   10.03740360216813    2.75710733883593
C          21.39481761354171   11.05021009778197    3.10301996188244
C          20.94097701880072   12.16879518242652    3.81267369859237
C          22.09066426420487   13.07581345453505    4.02371783579716
O          22.13878539544119   14.14432931007489    4.57944227667717
N          23.17187844541935   12.44414369398193    3.42128479289707
C          22.84453677235629   11.22404934800488    2.84886627886285
O          23.61614373994014   10.50124321136077    2.27026319003289
C          24.51356694953828   12.98583834374846    3.42856073525802
C          25.30371648820076   12.48711588972525    4.63334816641073
C          19.62688047720173   12.26709084394551    4.20791736216654
C          18.73463322381474   11.23999441690789    3.88247070299777
C          17.37038372470934   11.30698288383982    4.40409292029677
C          16.64726898767872   12.41626013138394    4.47621811934050
H          -3.20302649711174   -4.34012410545171   -0.33140481769445
H          -5.49446982171301   -3.10201098207374   -0.09764709811548
H          -5.03237621033737    3.05749758786616    0.38313896766112
H          -3.41159805344789    5.00049835441066    0.47221680389493
H          -1.86795827739082    7.02573297015485    0.61837227615303
H           0.63264988980419    7.65562770452018    0.58655691645081
H           3.04192810992361    7.63053637969007    0.58678854511761
H           5.53325173083247    6.96800627785537    0.44187633145603
H           7.05113263604336    4.87071412607264    0.14043353425621
H           5.42736209739151    2.31643727917926   -0.37508920120271
H           6.91179715176249    0.23596012190845   -0.80550576789124
H           9.38977129511528   -0.49017224702725   -0.81928412176708
H          11.78843892744235   -0.58488077888752   -0.68276133574487
H          14.28589830656583   -0.07686935555544   -0.30078852480461
H          15.84251649270376    1.77418719245115    0.37152001309552
H          13.53799343504989    4.94891346348623    0.74342750750780
H          16.37300811526142   10.10130085037261    2.51300379000971
H          20.89093539502197    9.18665549275646    2.19433459384570
H          24.42434173842718   14.07452562116300    3.45536926336120
H          24.99888881503351   12.67401333048473    2.50047039502049
H          24.81146910808473   12.78731113328192    5.55558394953431
H          26.30469446938549   12.90875809354535    4.61745359805948
H          25.37963265572024   11.40246591419774    4.60870093105209
H          19.29082863413092   13.11065330332822    4.79032756698932
H          16.96042901300547   10.36976073786223    4.75991289556756
H          17.00775082580223   13.35683500970807    4.09457160349719
H          15.65308189202660   12.41462316106311    4.88715762740572
