100
 SCF done       -212.113278087086          0.000492400752
C          -0.88261728074380    2.89982606520873   -0.03365819198221
C          -1.03450381356574    3.86089662621248   -0.99324459840957
F          -0.62113381349678    5.11406425756435   -0.76250842068922
C          -1.62572834082553    3.54910479815164   -2.23414949190988
F          -1.76225873598052    4.51224522174981   -3.15557539869324
C          -2.05708227418666    2.27948306745207   -2.49840294207500
C          -1.91470529750218    1.26709532693726   -1.52973389488237
C          -1.31631186161208    1.58050822556551   -0.27484094780090
C          -1.15906133903723    0.58016825228304    0.71169710499348
C          -1.58664478866108   -0.69536805094510    0.45064410276478
C          -2.18875141793447   -0.99548266456686   -0.80110465634636
C          -2.35437936450712   -0.05264423182700   -1.77397217531569
C          -2.57548793354087   -2.41895464856407   -0.83696326884587
O          -3.12691816236994   -2.97706030324340   -1.76149010224582
C          -2.20108324613966   -2.96958067007597    0.48699625042378
C          -1.54871162639483   -1.91776540038085    1.24836753548670
C          -0.93113905575965   -2.03961530082467    2.46677737585654
C          -0.79533126539468   -3.22920841693787    3.21337684355228
N          -0.62147404708403   -4.15319191619726    3.87350597609598
C          -0.30141752466656   -0.97181719512295    3.14117439240692
N           0.22224177986952   -0.14868244361486    3.74604733585432
C          -2.50704963753964   -4.20311625998790    1.00028662603577
C          -3.04150099197010   -5.35098290200388    0.38825777412381
C          -3.26657497261170   -5.69340957350763   -0.94106598788496
C          -3.76454943004438   -6.98040480635005   -1.07382708771041
C          -3.93554688482922   -7.64317259382174    0.16568567125181
S          -3.46162480965179   -6.68262981913602    1.48245066436068
C          -4.45741482972821   -8.93254736799679   -0.08307739935053
C          -4.61154436833781   -9.09678013751869   -1.47188008833343
C          -4.17785101874524   -7.87732525109582   -2.13975116854102
C          -4.15824171982781   -7.64522798451634   -3.48277685491587
C          -4.60351075351790   -8.61327060493815   -4.40877233104303
N          -4.96787151499548   -9.40077285772897   -5.15836104176005
C          -3.68434711277782   -6.44391493950138   -4.05475322204238
N          -3.28886189670579   -5.49093964590957   -4.55330042898907
C          -5.11326353935386  -10.34859304907185   -1.81743681809340
C          -5.34912946008819  -11.13723451706366   -0.70304980430411
S          -4.94041151485485  -10.31933284543779    0.79530225005306
C          -5.85781498178207  -12.45891485934535   -0.68107421475743
C          -6.16659967932609  -13.22882072102498    0.42604658465549
C          -6.65339391939973  -14.48472189456739    0.06825291917566
C          -6.70690288731509  -14.67466846673588   -1.32558484638712
S          -6.16881465483661  -13.30664588236259   -2.19217958207459
C          -7.20931308791569  -15.97103016423767   -1.58858967001376
C          -7.48804378627775  -16.60054930418248   -0.35992294428576
C          -7.14041051232632  -15.68882484574197    0.72096940932374
C          -7.24273131586568  -15.91448150252957    2.06139293290802
C          -7.72636540486506  -17.12900576793242    2.59382108322018
N          -8.11451302438590  -18.10943915895912    3.04298789078779
C          -6.86540594571734  -14.94132865119552    3.01151448826856
N          -6.56089068060266  -14.14875745552150    3.78206606351139
C          -8.00119637442416  -17.88177630177426   -0.51556929570939
C          -8.11539932416848  -18.24320742880964   -1.85312863468381
S          -7.56795496539072  -16.96711341652297   -2.92874028512654
C          -8.61781873491993  -19.48082278381797   -2.31739215146478
C          -8.73689253964022  -19.94885212926449   -3.62676856027599
C          -9.27117313981296  -21.24247526375751   -3.67709241581670
S          -9.56714593006006  -22.21597120338538   -5.10062930552388
C          -8.61042928628784  -21.31352069482476   -6.36013458387140
C          -8.98359662003128  -19.85059536305725   -6.38655898967669
S          -8.23902486332224  -18.95295001611845   -4.98592289326288
C          -9.60499267998387  -21.76052217719841   -2.41075943441150
S          -9.22555510812676  -20.61877110213941   -1.14976828349726
C         -10.13653674009558  -23.04402168901995   -2.24296183436748
C         -10.56090077412610  -23.67943141276852   -1.10295193584976
C         -11.09673346865683  -25.02400457760568   -1.02409460152242
C         -11.16032934445317  -25.95399457987540   -2.03040793182419
C         -11.68901367688892  -27.25227033626759   -1.87148571195821
N         -12.10636593101650  -28.31989807796200   -1.80835946951690
C         -10.70080407422862  -25.77444064843121   -3.35199011099469
N         -10.34808646255364  -25.71992115340430   -4.44396622873270
C         -11.53968078968634  -25.23707494491995    0.35117388182309
C         -11.24602133697173  -24.07594618448592    1.10898942527962
C         -10.60938989232019  -23.08004707117802    0.23312683054364
O         -10.21222637189157  -21.97560650915456    0.56349967119618
C         -11.54159816477642  -23.96284835495820    2.44547596669594
C         -12.16400437319269  -25.05029956467054    3.06729767878388
C         -12.45668623283196  -26.20598086804377    2.30429215367202
C         -12.15317749437164  -26.31973786664057    0.95246431747290
S         -13.22992195189627  -27.42749844524201    3.26713250366660
C         -13.15116793375194  -26.38408050175282    4.66220339256165
C         -12.57507451080291  -25.18219138878596    4.42166114013974
Br        -13.83824516072409  -26.97923218369334    6.30211894772071
H          -0.42662900913838    3.15534353234873    0.91009806881043
H          -2.50747529946045    2.05602004557169   -3.45279892726680
H          -0.70662819014040    0.85262754031023    1.65115813685355
H          -2.81262698458342   -0.31308573784470   -2.71588487948580
H          -2.32035933618997   -4.33698720629834    2.05959050676209
H          -3.07656499476983   -5.01385444613675   -1.75201277023000
H          -5.30721354136400  -10.68663894431092   -2.81946598141500
H          -6.04149312014061  -12.87517140189037    1.43385065400657
H          -8.28629560712757  -18.54221844412497    0.28364814972413
H          -8.86897399966092  -21.80280225429947   -7.29919460783651
H          -7.54767744089312  -21.45183627630549   -6.15961900729306
H         -10.06477371546573  -19.71317114577600   -6.35626393079499
H          -8.57879020334923  -19.35646008501052   -7.26979864171731
H         -10.22934817960743  -23.59491729403050   -3.17196633206989
H         -11.30186005314254  -23.06453796075278    2.99234871460829
H         -12.39898568374707  -27.22151414508743    0.41737857201207
H         -12.44502664529733  -24.41865830642860    5.16667532764539
