92
 SCF done       -187.791892362291          0.000757986937
C           4.34479440627324    0.61527696482752   -5.30603848330120
C           4.90926980085027    0.47409901628052   -4.07448667752922
C           4.39885125530821    1.42069278804088   -3.16672166700849
C           3.45144603452182    2.26701993916717   -3.75547710603711
S           3.18563752547763    1.89698234112976   -5.39784185180648
C           3.00117954397657    3.19543843390436   -2.77562018398168
C           3.66086463227558    2.92447885963654   -1.56655728749875
C           4.56257452445527    1.79760958841497   -1.77478065917937
C           5.38503416995887    1.22147048792516   -0.85115581437139
C           5.45911395643761    1.67930951710911    0.48092416277600
N           5.52569926924239    2.04448194580640    1.56600223471463
C           6.21649195923977    0.12511187375252   -1.16115751225124
N           6.89271688227080   -0.76987260095986   -1.39967332493453
C           3.29718882409794    3.79671540953715   -0.54003710641405
C           2.37554547516935    4.73714681230918   -0.96804956313347
S           1.93830573144153    4.51767291555223   -2.65446210241849
C           1.82371020298041    5.82267437016231   -0.23818787635328
C           1.86483285183419    6.06251896872177    1.12477228255941
C           1.24686535286888    7.26899435666127    1.46234344393692
C           0.74497773494978    7.95571349822220    0.33740943914290
S           1.00603179318756    7.10714228826542   -1.11989862906585
C           0.18696965552341    9.17509522870566    0.75470508888637
C           0.30973204686005    9.27456562340081    2.16180096734149
C           0.97181458270529    8.06560086003168    2.64492779249854
C           1.26453805200137    7.75541904350443    3.94171749736319
C           0.93858621526117    8.61889248624614    5.00738075780497
N           0.67363364616857    9.32228925411825    5.87389194044078
C           1.90245665651338    6.55062984790728    4.30331195116000
N           2.41581292180483    5.57096390179371    4.60587006844434
C          -0.18619613662216   10.46674290947522    2.65732444828252
C          -0.66551005102906   11.30976264264404    1.64196376045160
S          -0.51751405967426   10.55320999850468    0.05389498768591
C          -1.15101070052937   12.61184793262982    1.79856202571964
C          -1.43555498301147   13.49361126359058    0.77347270851587
C          -1.84589759433113   14.84365133443786    0.86044358602113
C          -1.92466164933708   15.49398721923069   -0.34400590627270
C          -1.57707368104308   14.68654378468026   -1.43972275132313
S          -1.21062488941706   13.06593660063625   -0.90437048923704
C          -1.39940009720415   14.93791228141851   -2.79774994331268
C          -1.60030117867024   16.06019530972303   -3.61491487025895
C          -1.21075196592067   15.86922606875768   -4.91715418276421
C          -0.66574262901777   14.59465985708466   -5.18986958389339
S          -0.71987756033986   13.63101294471567   -3.73490543658613
C          -0.12618660081038   14.14747904535875   -6.38408231537827
C           0.51842995573560   12.92604337641656   -6.59762831630963
C           0.78704471392619   11.88937736806900   -5.69444228643159
C           1.50911522101370   10.86161144340828   -6.25978808486063
C           1.81580781468049   11.05973622801204   -7.62618994014204
S           1.18777857725181   12.55376013777930   -8.19570855545880
C           2.56819663434172    9.95744860562844   -8.06881660967410
C           2.74631076920484    9.06241936062118   -6.98535573126968
C           2.09527866335543    9.60223440492558   -5.81903834683263
C           2.05885459276835    9.07233751050844   -4.55749806543575
C           2.71545902974307    7.87013860530948   -4.23080389383331
N           3.25863145868070    6.89971483607308   -3.94711805870545
C           1.38699698849851    9.68960199224660   -3.48565174957988
N           0.84660255414746   10.17014184837468   -2.59406799290781
C           3.48920697558902    7.93325989558539   -7.32175923194413
C           3.88862451389854    7.94512470066704   -8.64498255427003
S           3.32940898643819    9.38748221326510   -9.49365722237901
C           4.65862712214332    6.95404756007599   -9.30215527526039
C           5.13245087871755    5.77459826468613   -8.74814937555145
C           5.86201196491475    5.02473848800983   -9.66720233037034
C           5.94747656800520    5.62932263397407  -10.92914839888548
S           5.12648867932530    7.12833247759349  -10.98519363987694
C           6.70382002862554    4.78078928347720  -11.78234256678411
C           7.08744236325599    3.64274437950034  -11.05834582316786
C           6.57726278985723    3.75304526756296   -9.70929624343883
C           6.72522779573581    2.86226428402941   -8.68379157895834
C           7.40900643216106    1.63924694136720   -8.84052235269233
N           7.94860441783937    0.63386008185675   -8.95910814164352
C           6.20073992648169    3.09092140965218   -7.39712417186611
N           5.78425762305232    3.25850214294040   -6.34098491885585
C           7.85123429505203    2.74636355018086  -11.83235785385249
C           8.02835679535288    3.20987096196074  -13.09883727539611
S           7.27483956859979    4.74609317562924  -13.39079599477685
H           4.54386221858601    0.03851424902808   -6.18725469472781
H           5.65063214711734   -0.26770275074852   -3.84009336875068
H           3.69166635878805    3.77337375565223    0.45909854346899
H           2.31871980252300    5.38575676314056    1.82516172542796
H          -0.19164762109767   10.75486151862751    3.69328226967557
H          -1.26357506605839   12.97127045099004    2.81294776219475
H          -2.05138910518047   15.30762632995884    1.80926159555343
H          -2.19414098812413   16.52927727886124   -0.45595992819621
H          -2.01853875648693   16.97676703604069   -3.23822352632807
H          -1.28369691968891   16.62266185413441   -5.68188203125486
H          -0.18045882207423   14.82566226598414   -7.22546504312299
H           0.47927678494568   11.89204998353555   -4.66818104427353
H           3.73343706226229    7.14039391518293   -6.63972808394712
H           4.94976219426862    5.48774569366370   -7.72944833875695
H           8.24850878291984    1.81322907739118  -11.47688591232960
H           8.56347530204084    2.74416593606952  -13.90181516299207
