97
 SCF done       -173.993282978270          0.000614779689
C           5.23490825822393    8.59433483731389   11.24646454891758
C           5.68969669004074    7.65579251044473   10.37499904026964
C           5.33248255146045    7.96597012330050    9.04683677950210
C           4.59888106336783    9.16211617691669    8.95625550377016
S           4.35624016841952    9.88750042036666   10.48499351303270
C           4.28509250392637    9.40252202836745    7.59863943868233
C           4.82115713994883    8.35599916198444    6.82582383151223
C           5.49831377511843    7.41890637025491    7.72337758135744
C           6.15182508785745    6.27037266676727    7.37165873975905
C           6.26500779043913    5.82359129334028    6.04030648493649
N           6.38273017674885    5.43145470316775    4.96809240839858
C           6.77425271304132    5.43887424779336    8.32390356205903
N           7.28569920406381    4.74719025029482    9.08373923886607
C           4.57764647189060    8.48925188859181    5.46762450643235
C           3.85083032322696    9.64393580648232    5.17188856716632
S           3.47292445565178   10.55941081964732    6.63456778635718
C           3.41215343052157   10.16082665841934    3.94555406251002
C           3.59597870875297    9.64108132163068    2.68510544005961
C           3.14431608399296   10.24456931363673    1.48530929383202
C           3.46057457193146    9.55547892368152    0.35233002846714
C           4.17488699578906    8.36397467839246    0.59223114650084
S           4.43103275679623    8.14636138425317    2.30993378443344
C           4.65788011544967    7.44124648882193   -0.31807769250508
C           4.58933012157531    7.47489216281589   -1.72871364907422
C           5.19606349120136    6.41475497030963   -2.32992645578437
C           5.77235425522890    5.48117764170189   -1.42905417138968
S           5.50311217945882    6.00822175609460    0.22120254406312
C           6.45879554233116    4.34515512076026   -1.77335840809805
C           7.03264969119584    3.40121556193464   -0.90051645196636
C           7.79065107745644    2.30975695640136   -1.27951394966025
C           8.24380405591917    1.53700296862607   -0.19616561814767
C           7.80448719762834    2.05300277868860    1.03829505024394
S           6.85237369453108    3.49024870038696    0.84522983232806
C           8.09737765679309    1.48573470752291    2.27069984970463
O           7.54140895591760    2.13891702171232    3.31945504248755
C           7.97690239416619    1.96941225858781    4.64615038268016
C           8.88686523856080    0.32061508968415    2.24925456921144
C           9.36380902449871   -0.19080550748992    0.99686549954020
C           9.06214281367900    0.38142394231367   -0.22539901039452
O           9.43852781917517    0.00088713118174   -1.47519144571911
C          10.26961772691908   -1.11593918148596   -1.67482168526291
S          10.33690245123099   -1.63068959072649    1.26484427067901
C          10.07755029859298   -1.56523361092828    2.99160953258129
C           9.30344224033116   -0.49045169120148    3.33123001695548
C          10.59711016677022   -2.52601178558754    3.90594467757558
C          11.50073616151219   -3.56587649919848    3.72645945641440
C          12.20736623036997   -3.89674988792039    2.44924655279109
C          13.40994646802709   -2.97602169046554    2.23385700642273
C          11.74271103625683   -4.26794808908153    4.91060004458140
C          11.03906289205337   -3.81074084680420    6.00837960069537
S          10.04954468127130   -2.45291593561104    5.55956849745858
C          11.00978854506261   -4.27298656235236    7.34605133592289
C          11.76827536586651   -5.28725000117694    7.83848942759691
C          11.67490688127767   -5.71047784989932    9.18754052560188
C          10.83711412876736   -5.26609767077000   10.20135683335055
C          11.12263064765006   -6.02293933161598   11.38538732389713
C          12.18160538187399   -6.95936246488314   11.07333160422822
O          12.76027966992915   -7.79564850276511   11.73226055261197
N          12.46444647523937   -6.71090666347582    9.71664906071822
C          13.48058262760821   -7.44735933261991    9.01749522595916
C          10.28474859449912   -5.58733088106784   12.37228509276905
N           9.49146139890081   -4.60089771039652   11.87297144540137
C           9.78072767530069   -4.34217041329907   10.51419446528756
O           9.19491936894165   -3.49686807171446    9.86015457276327
C           8.47826196348139   -3.88378135600391   12.59522607430560
H           5.35584973308733    8.62039912003571   12.31079074928265
H           6.25146620355012    6.78867208611025   10.67118161214321
H           4.90647978340870    7.79288024984585    4.71937164319412
H           2.86630619080895   11.09469767248942    3.99609837753501
H           2.60283205316170   11.17415209185140    1.49915118604295
H           3.19859947551091    9.87157101299063   -0.64143709036233
H           4.10569054799344    8.27690660296045   -2.25716765625545
H           5.25178384849508    6.26903149659789   -3.39448298792668
H           6.58549443705787    4.15031157198340   -2.83086568817108
H           8.02144977117246    2.07590818306901   -2.30255026679898
H           7.58465700845432    2.83468888829625    5.18136165976461
H           9.06743774981771    1.96438628664568    4.71920858984800
H           7.56431040552044    1.05962401330446    5.09308752056835
H           9.79610686826022   -2.04115275248523   -1.33573369659409
H          11.23679745381606   -0.99738619188601   -1.17910159823212
H          10.42389773063811   -1.16788211822103   -2.75215729148865
H           9.04359008451587   -0.31299167983804    4.35709162710801
H          11.52388873191109   -3.80832827119360    1.60342885051739
H          12.55113671169247   -4.93177998384051    2.49823705833714
H          13.08979605843597   -1.93944218869386    2.16701431143157
H          13.92441346986720   -3.23911293803444    1.31316139132632
H          14.10885086053210   -3.06733197900283    3.06242635972439
H          12.41733523741924   -5.10436618062689    4.95769090078344
H          10.32191109583154   -3.76732965957059    8.01107224082806
H          12.47259566039049   -5.80103281311951    7.20089933196176
H          13.91469049263171   -8.14209320825111    9.73726491825676
H          14.26261702044593   -6.78228236745123    8.64446474534599
H          13.05569460099604   -8.01367981486500    8.18552900465578
H          10.19231193660187   -5.90685648827516   13.39373400613556
H           7.71054967889552   -4.56435051231698   12.96883857508199
H           8.02711357025018   -3.17752710430414   11.89789882364277
H           8.91092020512974   -3.33557273804392   13.43465007575152
