98
 SCF done       -209.793302902475          0.000511854825
C           0.46875323297613    2.46068603635413    1.54958635093248
C           1.02645611811431    3.13839240667482    0.50208360507536
F           1.64454694476331    4.30790499164909    0.70961568387760
C           0.96022639828534    2.61760459726809   -0.80624444913857
F           1.51782705716515    3.30284364986512   -1.81278628637158
C           0.33611390812878    1.42609405061309   -1.04900220754012
C          -0.24704997378618    0.70311621358783    0.00976019155983
C          -0.18085724601990    1.22867671210026    1.33306661989251
C          -0.75797719982294    0.52079513491837    2.41180741453204
C          -1.38034687337807   -0.67651243462475    2.17375056720903
C          -1.43667271465935   -1.19592947742688    0.85116771356724
C          -0.89106964244171   -0.53450346112097   -0.21116027930282
C          -2.13543187460417   -2.49602663055015    0.85660277509175
O          -2.33614201261629   -3.20250819620279   -0.10668677636243
C          -2.45293680670672   -2.76847321986337    2.28113573167841
C          -2.05229325547109   -1.61414526097901    3.06650426311868
C          -2.32585178687329   -1.39377916070316    4.39113492935701
C          -3.06822327112507   -2.25720914537954    5.22485677718741
N          -3.67886749742339   -2.89850936601678    5.95599113064130
C          -1.92736887716249   -0.23820210576256    5.09620859055276
N          -1.62441822818866    0.67271106777009    5.72514360890891
C          -2.86133148372920   -3.95777397371028    2.81850226991083
C          -3.35798357686574   -5.11245736078633    2.18080186231372
C          -3.89729258985738   -5.31925828439989    0.91704551180778
C          -4.30296137953589   -6.63428367870410    0.73118756275261
C          -4.06554448182048   -7.45066906787792    1.85831116700920
S          -3.38520943228497   -6.58934255746497    3.15365964249835
C          -4.46422156442905   -8.77237498181957    1.54582793537728
C          -4.96481404506462   -8.79824008522231    0.23146516127744
C          -4.89703043259205   -7.45132606631817   -0.31738343628367
C          -5.32122012563775   -7.03821896502555   -1.54425022236028
C          -5.88178860501136   -7.92846616933317   -2.48700030546818
N          -6.33497910072141   -8.64157050420922   -3.26116625171274
C          -5.25980055591514   -5.68876104937396   -1.95781631239562
N          -5.24434215956191   -4.59703837548649   -2.30580792654932
C          -5.36775938110141  -10.07405093521863   -0.16504760257415
C          -5.16795213095896  -11.00807365825371    0.83193087374142
S          -4.48604650620795  -10.30740324843874    2.28651774212967
C          -5.43433017776683  -12.41660326421099    0.74651930989014
N          -5.99190610943649  -12.84782643776989   -0.39154464458099
N          -6.23037245965402  -14.09017127046667   -0.58666163403875
C          -5.93287975560528  -15.00970424218749    0.33955625034440
C          -5.37391559989709  -14.64102283367799    1.57882018004269
C          -5.11835958412669  -13.31142795567159    1.78750398466207
C          -6.20215421429214  -16.37622818992713   -0.01003840757846
C          -6.78868709321548  -16.82486886879138   -1.17679777582043
C          -6.86827814639005  -18.21734660395949   -1.21422071252991
C          -6.33128386196269  -18.82196307519166   -0.06357993623906
S          -5.74332923491990  -17.68538684046387    1.06116529465744
C          -6.41912788100092  -20.22770750188256   -0.20468006593470
C          -7.02436418410434  -20.51848212232038   -1.44230344822346
C          -7.33304793220237  -19.26412421867895   -2.11327987050983
C          -7.93367185762227  -19.10731554298278   -3.32611085400645
C          -8.35857929875588  -20.21056651373537   -4.09827159598636
N          -8.71768503168810  -21.10262699190265   -4.72189981948885
C          -8.18756573804338  -17.83710459381146   -3.88880657775660
N          -8.40332659814254  -16.81243978430932   -4.35408587981122
C          -7.14183272745392  -21.88528468068799   -1.67284122376891
C          -6.59238567009951  -22.64111075760411   -0.64804514650060
S          -5.98356703481985  -21.62637462290860    0.65822672823145
C          -6.57331556442310  -24.05384057322050   -0.57907852960999
C          -5.79752621459099  -24.86892802581345    0.18544086900176
C          -6.24500652625869  -26.26502814947781    0.45672425810955
O          -7.12320954465561  -26.86656756237015   -0.11381924632735
C          -5.43116080118899  -26.71184515429588    1.60617182146801
C          -5.52389427478270  -27.86856608153722    2.32523377344071
C          -4.64470932969366  -28.07384469286676    3.41227398448539
C          -3.68908773830147  -27.06812225559723    3.74012935496841
C          -2.82118091376604  -27.27636658187427    4.83087171165514
C          -2.89417002439654  -28.43087890865080    5.55840055506057
C          -3.83709119306664  -29.42650435270421    5.23132293465762
C          -4.69483716082036  -29.25280870722531    4.18143885241849
F          -3.88598770792865  -30.54750575598032    5.96201939613653
F          -2.06765781562089  -28.62763930582095    6.59305425502800
C          -3.61114793713611  -25.88337121563651    2.97318535913981
C          -4.46418086863500  -25.71282307280692    1.91624187116001
C          -4.57957815801533  -24.63891119356281    0.93402258585400
C          -3.57640712907452  -23.76756563113902    0.59926772708119
C          -3.61321488733996  -22.94875823916795   -0.54828819387947
N          -3.59754046027887  -22.29896601464675   -1.49437954046474
C          -2.36594110508012  -23.65579851017466    1.31276528489622
N          -1.37596309912543  -23.51270469366538    1.87532860780761
H           0.52700038125744    2.87399553268160    2.54440625082452
H           0.29366059473644    1.04115463322470   -2.05580992042247
H          -0.68566632645522    0.94145918006854    3.40162526759376
H          -0.95056845005584   -0.95121250076370   -1.20505622705962
H          -2.76888347474632   -4.06297430233873    3.89361491113815
H          -3.97666423526649   -4.53893272231129    0.18340811201383
H          -5.77967350366504  -10.34694834852814   -1.11918517709280
H          -5.15708151063897  -15.38834160020298    2.32801085332083
H          -4.68638766129606  -12.95139353362822    2.70979192226684
H          -7.12191217622173  -16.14448112076314   -1.93879110407084
H          -7.56820757784273  -22.33170764678158   -2.55297416775491
H          -7.33400352102912  -24.55809499701094   -1.16824228181432
H          -6.25655702771178  -28.61801812564783    2.06753475936451
H          -2.09065675879305  -26.52661211062182    5.09167303898308
H          -5.41062790667371  -30.02420294608662    3.94432910388147
H          -2.88423104787132  -25.13459524070322    3.24521918641826
