89
 SCF done       -193.784640115833          0.000406696169
C           4.08376520101249   -1.24451752245154    4.12541491573332
C           4.16148226359933   -0.37960230314190    5.17447978821692
C           3.61929590600899    0.87680960016479    4.84284152883627
C           3.13988929579404    0.92107640456237    3.52861379182423
S           3.35279014597227   -0.56147642285047    2.71099095095828
C           2.61062165743756    2.22039681513332    3.28140964223257
C           2.76194597059445    2.99034602375729    4.44215419778746
C           3.39866470030115    2.16924139090243    5.46553518752731
C           3.70866915299246    2.54147802350834    6.74048770878887
C           3.43371126087085    3.83549145232099    7.23081234484850
N           3.20929495813903    4.88637190705563    7.63077058808554
C           4.31913390408215    1.65699670475622    7.65455276516575
N           4.81344500619255    0.94140299121435    8.40169131710722
C           2.26741130480455    4.28849984995537    4.30230622032368
C           1.73851937252788    4.50532931401186    3.04444489760207
S           1.85873306736221    3.08408145663144    2.01676138865951
C           1.13303408950246    5.68852512564711    2.54633372854368
C           0.54928523232815    5.87346629609703    1.30687190476593
C           0.02801336805165    7.15963160643864    1.16455800243531
C           0.22384560470105    7.95932439035904    2.30157867961034
S           1.04642601584000    7.12954481592901    3.54768735416126
C          -0.35722955729229    9.23350713687731    2.06569438263427
C          -0.92698559677049    9.23063875656663    0.78059445175332
C          -0.69404926100479    7.93427336184938    0.16656333947722
C          -1.06690355779609    7.53080297312806   -1.08148466601882
C          -1.76568729921096    8.38011668593495   -1.96529315926279
N          -2.33401200213966    9.06879352007626   -2.68452956073176
C          -0.77472362720190    6.24032015922238   -1.57128896388781
N          -0.53795408248548    5.19232387670523   -1.97171377535591
C          -1.54790407412373   10.43716594466389    0.46495536054668
C          -1.44420600353546   11.35916745213588    1.49181311406130
S          -0.56233468395432   10.72215741378337    2.87364512469496
C          -2.00146725188843   12.66730161610587    1.48555615459247
C          -1.81055678627157   13.71271243965057    2.37913727390324
C          -0.95268413318483   13.61000580164091    3.48446691544684
N          -0.24304642668880   13.49675904813046    4.37874660915491
C          -2.56517562781822   14.86996295166975    2.03323622551105
C          -3.31723184059702   14.65409495718259    0.88462412378538
S          -3.11618129233010   13.08884195060962    0.20027016296949
S          -4.30150542303799   15.98715789841468    0.37831861492557
C          -3.68962076741076   16.87271615982821    1.73610838623488
C          -2.77798857769454   16.18963217361308    2.53223806862623
C          -2.31635931679580   17.00716525362704    3.60312489793219
C          -1.39374079507269   16.60834178849725    4.58190002680309
N          -0.64416665752342   16.30896456890338    5.39718908971224
C          -2.89269173002555   18.27030213060456    3.59381487971989
S          -4.01754749647240   18.47618160078300    2.26553477838865
C          -2.68006091437477   19.36712459635090    4.47335649669468
C          -3.42630890379186   20.53229168802290    4.50065159394753
C          -2.94913640671660   21.43697033113805    5.44668191483227
C          -1.82145252406090   20.95727256052124    6.13530455913782
S          -1.36423294717773   19.39010932470460    5.63992032681145
C          -1.39642555521606   21.95600890570232    7.05093107086141
C          -2.25930842059190   23.05819869132236    6.94515480213175
C          -3.27058832589868   22.76550259547409    5.94050663372744
C          -4.30432915435158   23.56497029206045    5.55112640709561
C          -4.52099228919736   24.83985827818226    6.11526025125101
N          -4.69928752550338   25.87581930853210    6.57310916100713
C          -5.22800710326353   23.16594108007516    4.56195351597133
N          -5.97915687783773   22.84158679161159    3.75876735475054
C          -1.90878897794973   24.10761006330681    7.79505775214265
C          -0.78245550953976   23.81248658518239    8.54039585127182
S          -0.15254949737313   22.20940495980305    8.19372094531743
C          -0.13076445429889   24.64789213714635    9.48487017739975
C           1.02366027126112   24.38229544169514   10.19606895593589
C           1.38185237682464   25.44809170431180   11.02366718317286
C           0.49129197201845   26.52659642798761   10.94134029340193
S          -0.78597175820287   26.23833772098352    9.84755034115605
C           0.94540793276862   27.55547936328148   11.81579664141151
C           2.11939062733651   27.12256184215978   12.44297299643590
C           2.43843990883262   25.78804459770980   11.96965106885087
C           3.50319373002706   25.01284095767243   12.32382251525036
C           4.47452845770985   25.44772510565754   13.25005350146463
N           5.26688497616907   25.79706245922395   14.00167258670006
C           3.70550995527131   23.72534896425605   11.78349540046072
N           3.87200891387998   22.67965525346077   11.34360950573852
C           2.64066731075381   28.08444186882576   13.32927375803269
C           1.86626781642112   29.20439017918435   13.35530961475100
S           0.48799575873138   29.12379920566594   12.30874082870784
H           4.41533669121051   -2.26282353159769    4.08831419867780
H           4.58454578964097   -0.63476837764594    6.12872678251344
H           2.28093527092355    5.04446603389574    5.06684403604803
H           0.50768211544126    5.10068836569602    0.56038785166222
H          -2.05046901966711   10.65021085241173   -0.46178522558628
H          -4.27391369227384   20.69721086472093    3.85943066375384
H          -2.43147186834685   25.04399809838201    7.87342429849214
H           1.56568944039053   23.45830858685656   10.10306405127321
H           3.53340132894905   27.96197136095697   13.91466337204827
H           2.01738747108790   30.09358292519038   13.93388720676504
