91
 SCF done       -188.965860599327          0.000563725432
C          -3.31699888189197    1.31347695555037    7.66308003829854
C          -3.32529656757950    0.78320885503003    6.40836898589285
C          -3.00007594615306    1.75353946731654    5.44138864350173
C          -2.75239007950917    3.00852008277759    6.00700938111462
S          -2.91637161680084    2.99723001742104    7.70585655949134
C          -2.43574668178319    3.92486238184250    4.96185328485173
C          -2.48424547401914    3.23784878060071    3.73905221128674
C          -2.84229890712569    1.84919808075501    4.00000881818454
C          -3.00057154212788    0.85195343553194    3.08380183277778
C          -2.82312267821369    1.05811157652240    1.69877813016348
N          -2.68356862545380    1.20820892630091    0.57097552982752
C          -3.35692358163440   -0.46104993818683    3.45883400729420
N          -3.64610678200073   -1.52914318163403    3.75865845489141
C          -2.19035129469179    4.05626889312512    2.64663740085450
C          -1.92486815169424    5.34963448448312    3.04682081748348
S          -2.03290334026716    5.57028640294037    4.77763449935516
C          -1.60028988744169    6.45289081132821    2.20969371353052
O          -1.39431711429207    7.68008364042148    2.77731780809288
C          -1.12394191622407    8.49519772361186    1.73134255340532
C          -1.17666507892880    7.70237908059442    0.54755743703179
N          -1.48258537329900    6.41971488996025    0.91925193760152
C          -0.94711864660899    8.23907383630856   -0.70750243194061
C          -0.66975960881699    9.59762238398278   -0.71438730875307
C          -0.62706888563085   10.36779810057603    0.48523336485689
C          -0.84897192647244    9.84715576381220    1.74552433190250
O          -0.34369275232363   11.64165302814495    0.13756584323462
C          -0.22502368343579   11.61285775353186   -1.22475659240366
N          -0.40602265431846   10.44178504494788   -1.75666098399180
C           0.06703289592074   12.83094472942329   -1.91028018991375
C           0.21739808152153   12.87498908113790   -3.24919178438998
C           0.49484175745790   14.05736059720802   -3.99582603456351
S           0.72945508373727   13.95094519451281   -5.72365489499606
C           0.98989984928203   15.66463290995639   -5.88784545302840
C           0.88689833569982   16.26295901142914   -4.62396319865736
C           0.61453647101890   15.35529920147234   -3.57997874501641
N           1.03042587167902   17.63003497399947   -4.33151060960678
O           1.22557500591551   18.41136983632232   -5.25618944495970
O           0.95361197890777   17.97521417518444   -3.16982614597127
C           1.25882255586476   16.16909632128340   -7.18438745394258
C           1.36965316986810   15.35166975071409   -8.31000773816494
C           1.62955940841613   16.07317719729198   -9.46309502874039
C           1.71302202135412   17.45968789172141   -9.21694934130321
S           1.48302331676478   17.86762012003236   -7.57831033833774
C           1.97436227377206   18.10844166579749  -10.44794288382454
C           2.05783609929023   17.13679205646095  -11.47185066085444
C           1.84377937138408   15.82492914633646  -10.88243043059971
C           1.84176481180873   14.61387222374767  -11.50743248515635
C           2.05007472834980   14.45023763388380  -12.89480855012959
N           2.20892544052564   14.27475922813638  -14.01595122895287
C           1.62468006131275   13.41503378143975  -10.79366569418552
N           1.44935688577118   12.44222398300169  -10.21284201940047
C           2.31146219329036   17.68274114329576  -12.72376169843580
C           2.42483964041861   19.06677868282884  -12.67595485813102
S           2.20409594574281   19.68508059750318  -11.03099285030243
C           2.64941200382489   20.05450098325736  -13.65864192056718
C           2.90638320477006   19.96924935127543  -14.99782406036947
C           3.08043820054259   21.13250128320342  -15.85825756288591
C           2.83229372350069   22.44327195363481  -15.54142502877401
C           3.01759024973210   23.51995481560512  -16.43557963905640
N           3.14731974956376   24.44535038073986  -17.10241314632558
C           2.33353669122469   22.93093739427282  -14.31479814859097
N           1.91663269268375   23.41761145847238  -13.36110009303029
C           3.51627667828162   20.66026256814363  -17.16653748215647
C           3.54118462953161   19.23774111952221  -17.14833152466596
C           3.14461495670540   18.75217853600981  -15.81750387117289
O           3.05651038380627   17.59000167337040  -15.48220287907528
C           3.89635079846798   18.50438361014513  -18.24378867254832
C           4.25672399141263   19.17606547217400  -19.43299597389201
C           4.24526267846882   20.60085671782180  -19.45790861916888
C           3.86912211662225   21.33170161634768  -18.30790294274950
C           4.61260482907491   21.26217234670100  -20.64764803893833
C           4.97205477543085   20.55202407115831  -21.76064228949626
C           4.98086311764647   19.14926779944490  -21.73557124043450
C           4.63080391531492   18.47581868641252  -20.59667023989097
H          -3.52521859255731    0.81330212248573    8.58767166954009
H          -3.55276109775935   -0.24537300583057    6.19653095933258
H          -2.16472382276060    3.76121696879501    1.61423801406050
H          -0.98446580170370    7.64944694837426   -1.60557878579693
H          -0.81395366810849   10.43611960620176    2.64540641495208
H           0.15759949461952   13.70801004070287   -1.28805970493975
H           0.12268416208714   11.95244702893647   -3.80413488232626
H           0.50962781716474   15.68555504080027   -2.56312211599736
H           1.26369109825435   14.28251461378518   -8.26145332208611
H           2.41876095496663   17.12836367530167  -13.63962807471429
H           2.61345995677452   21.05728509480225  -13.24871770512858
H           3.90156591921883   17.42536640735409  -18.20105220981053
H           3.87428020324682   22.40850357753359  -18.36116823390402
H           4.60271973857816   22.34218621746594  -20.66239708295018
H           5.25139047699075   21.06766321433962  -22.66719783881830
H           5.26667862512557   18.60511183566284  -22.62327220681076
H           4.63577957289147   17.39601036389029  -20.57121002709276
