102
 SCF done       -194.599194211706          0.000297159322
C          -5.75816892714806    3.27300211537278    4.61296257120904
C          -5.61929966472680    3.78727103934757    5.87159695136011
F          -5.75035551967946    5.10631757053447    6.07922240590937
C          -5.33858300681096    2.94346496351765    6.96327804391558
F          -5.20811895914358    3.47466313807691    8.18904211471857
C          -5.19997226155828    1.59580362519762    6.78184625601365
C          -5.33797740239766    1.03576964183258    5.49755746372404
C          -5.62214595986944    1.88795527460373    4.39245542390382
C          -5.76765890143017    1.34806194198556    3.09318849866302
C          -5.63534753714778   -0.00211571741065    2.90660934021534
C          -5.35365664711377   -0.84399530322487    4.01563695038465
C          -5.20460011100195   -0.35432606788082    5.27970744468090
C          -5.27275053964905   -2.24847825388197    3.55777006183733
O          -5.03039627320638   -3.20231830607148    4.27260433224109
C          -5.54963124139169   -2.21482520344814    2.11226408073027
C          -5.73765478628303   -0.83787759639740    1.71140288656521
C          -5.95552533803898   -0.34922443695274    0.44284599147663
C          -6.03737581852386   -1.10277935644022   -0.74377312500599
N          -6.11606243206726   -1.63470582064065   -1.76107862905884
C          -6.12134917768354    1.01699969651264    0.13995348285926
N          -6.26694807319177    2.10938801244366   -0.18517995123446
C          -5.67219473340951   -3.27747447785803    1.24088386253295
C          -5.53190727721193   -4.65676679053901    1.40503933305865
N          -5.78535341324630   -5.47218163315344    0.30320197607880
C          -5.60560487486494   -6.75951072059061    0.66477075988444
C          -5.66733376688643   -8.07178957047625    0.21414461647434
C          -5.31333191799347   -8.87646893570653    1.30658083751578
N          -5.03488825506483   -8.07671522380923    2.39328950716289
C          -5.21493566688825   -6.77418138631060    2.03608636700979
C          -5.16839149386466   -5.47451714234300    2.49835209284252
C          -5.23732339830218  -10.29067900379810    1.40055156101399
C          -5.60368434907826  -11.13853693207966    0.40696542276860
C          -5.57504230782664  -12.55338805857185    0.46374707765282
N          -6.08216447548177  -13.29626836433241   -0.58625469884962
C          -5.97025166139276  -14.61349010520780   -0.28201002354347
C          -6.24064555550898  -15.89819922097178   -0.74020902645035
C          -5.78548847214482  -16.76966640782382    0.25587465321553
N          -5.24474460639719  -16.03221565703060    1.29208094540884
C          -5.35672162791403  -14.71082884937125    0.99231616860850
C          -5.11248819416904  -13.42293747625135    1.45961840979839
C          -5.83128683035025  -18.18688213202575    0.30782696350885
C          -6.44786988365657  -18.96294014323949   -0.61744801766674
C          -6.52875343046739  -20.37879765707020   -0.59755172758704
N          -7.27946637502980  -21.03746355447948   -1.54879868687693
C          -7.20886655772869  -22.37369073647921   -1.31245367236771
C          -7.65180706047766  -23.60984089015730   -1.75103321569956
C          -7.07384828325453  -24.56140885698260   -0.88806589693352
N          -6.32001276770053  -23.89675517330058    0.06835938954481
C          -6.37680271845543  -22.56502551518994   -0.17570289307751
C          -5.95586878595207  -21.31682204627011    0.27157561623964
C          -7.20577928737562  -25.96147957744504   -0.84474214472166
C          -7.78243682396823  -26.76632921709209   -1.79138792439802
C          -8.08801898432050  -26.38541065087370   -3.10602758178736
C          -8.86805367302887  -27.05940093769825   -4.01376924932298
C          -8.74248938895206  -26.77004742321940   -5.45648412612634
O          -8.13966468351453  -25.84876226516091   -5.96774224354915
C          -9.47858618400954  -27.85595767384887   -6.14104684448453
C          -9.60280406020775  -28.10221660805885   -7.47668181782611
C         -10.34409558782512  -29.22830753385394   -7.90246501555472
C         -10.93947464808718  -30.08052640048342   -6.92872871170140
C         -11.67346790290132  -31.20360751295649   -7.35892167169847
C         -11.81314585119472  -31.46609064080304   -8.69298069313245
C         -11.22558873148603  -30.62189379965696   -9.65462794182233
C         -10.50548733163806  -29.52592959674831   -9.26915659300909
F         -11.37839887467921  -30.90283053335549  -10.95801794746654
F         -12.51449279873449  -32.53486306686718   -9.09972225531065
C         -10.79947793999743  -29.79473349942327   -5.55025491990910
C         -10.08405688989537  -28.69476803376918   -5.16217159554131
C          -9.81046955225683  -28.13185767740749   -3.83930296296601
C         -10.49463443917454  -28.44730531204718   -2.68864041647495
C         -10.45362312595019  -27.67349219428059   -1.51228660452699
N         -10.51299948022890  -27.04572098360557   -0.55200922374112
C         -11.41327186214688  -29.50927740589366   -2.58826573468476
N         -12.15238792706379  -30.37729699969741   -2.44607136601381
H          -5.97301379046399    3.93314477610746    3.78713869930400
H          -4.98515964705148    0.96276407114600    7.62855286446497
H          -5.98456472640992    2.02178192157387    2.28061690448599
H          -4.99050088944389   -1.01839922475738    6.10337930712804
H          -5.94415631982745   -3.00642533376722    0.22782326581495
H          -6.05517668857873   -5.12769501394253   -0.60285457849482
H          -5.92378312710361   -8.41628690994838   -0.76646287259815
H          -4.77009747196996   -8.41658853245143    3.30159405296285
H          -4.92038362497810   -5.11081373931682    3.47363480812474
H          -4.88379522333840  -10.69464300819467    2.33892775590429
H          -5.97758247996708  -10.71779097583377   -0.51684697782454
H          -6.48548848688446  -12.90240922211859   -1.41854990836669
H          -6.69617328219751  -16.18162883876880   -1.66674660618557
H          -4.86201497644507  -16.42880440127850    2.13277972647070
H          -4.65969303218997  -13.13175438501866    2.38545221381103
H          -5.35371159980880  -18.65489626421869    1.15770149026270
H          -6.94596593786249  -18.48015238817963   -1.44711816959814
H          -7.79621960239359  -20.58463246210772   -2.28265094402568
H          -8.34552869389248  -23.81272928776670   -2.53969857304201
H          -5.80568524787103  -24.35453526798145    0.80103324094681
H          -5.31921961357540  -21.09454265056407    1.10337192621226
H          -6.85554944145141  -26.43435299420697    0.06466856040321
H          -7.96201208200344  -27.79797436420719   -1.51878357029611
H          -7.56414453041448  -25.52620993932054   -3.50995705720739
H          -9.14303000215461  -27.44718017924757   -8.20109511028328
H         -12.13261175995103  -31.85874086236329   -6.63513615816461
H         -10.06140341168956  -28.88907814622350  -10.01817368175532
H         -11.25898096156777  -30.45863912867729   -4.83555531912979
