104
 SCF done       -223.714062031577          0.000759787684
C           3.65079242465493   -0.48167039452280    2.51807614567887
C           4.83918771802475   -0.84583212168199    3.08689649194114
F           5.82039893862717    0.05327531720238    3.22998147550202
C           5.04796746878866   -2.16824468202468    3.52814942256055
F           6.22219790261298   -2.49713527087697    4.08159352626177
C           4.06548930676352   -3.10891588286407    3.39293626996534
C           2.83122150158670   -2.76511077010969    2.80831542947465
C           2.61779417901031   -1.42775504005109    2.36414706772982
C           1.38692924063191   -1.05889831803884    1.77380289462143
C           0.40331444941788   -2.00037584382747    1.62545724974223
C           0.63002881087881   -3.33617137688914    2.06242228423510
C           1.80348496638757   -3.72030032812343    2.64478647364536
C          -0.55726223300162   -4.15034400015777    1.75664576348066
O          -0.71785143503156   -5.32861952804152    2.02508438654721
C          -1.48975901715459   -3.26407476531176    1.05052586823346
C          -0.93814721367972   -1.92076209935220    1.05228973543518
C          -1.56117171272144   -0.77086895924469    0.64662208194353
C          -2.88662768313904   -0.68734392842301    0.16816808573659
N          -3.96010177540164   -0.54213055477202   -0.21167939129976
C          -0.96186498555499    0.50623479180378    0.69194806403164
N          -0.52580022956141    1.56772777819284    0.70261250725370
C          -2.61819309767648   -3.66719526505403    0.38503120835528
C          -3.18951064386921   -4.94377858091202    0.26472956447611
C          -4.24913536159711   -5.19233988846091   -0.61749058224931
C          -4.62906744939731   -6.51891571244528   -0.62583021014365
C          -3.88149703201505   -7.29719858041719    0.29346821860781
S          -2.69166745398519   -6.40149227870267    1.12089579768697
C          -4.31095824246434   -8.64089433123044    0.17559516272336
C          -5.30763184518527   -8.71552022273650   -0.81903151073520
C          -5.56022042865487   -7.38247804998577   -1.33622199818281
C          -6.46899671736102   -7.02842928217391   -2.28801575896096
C          -7.34637635402103   -7.96543852772445   -2.87780718129919
N          -8.08061698481047   -8.71547737300580   -3.33789062880546
C          -6.61097804904777   -5.69451508494781   -2.72785499233062
N          -6.72364266148406   -4.61141081402036   -3.08588299740656
C          -5.72070459147269  -10.01700054734963   -1.07733253519057
C          -5.06119847020365  -10.93629828311384   -0.27827228322372
S          -3.93774424324564  -10.17174524029299    0.83597169747880
C          -5.16191823004168  -12.34586005491473   -0.38644214776996
C          -4.98924879467235  -13.35427132744486    0.66439603823967
N          -5.13948920147316  -14.57842006177235    0.25563652445378
C          -5.38142496160739  -14.49376098327481   -1.08695948534585
C          -5.44122346856801  -13.09026475412888   -1.51189038496693
C          -5.53010893478412  -13.00371573591964   -2.94702194952411
S          -5.47372976541664  -11.62556468124121   -3.84985554400726
C          -5.54654176363878  -14.37700444569018   -3.38234121950444
C          -5.47536856821138  -15.27100874648980   -2.21294725346407
N          -5.44012772321995  -16.57872801855946   -2.60270102288447
C          -5.45121769707146  -16.55693312442788   -3.89957087202556
C          -5.48325242220595  -15.20880597298502   -4.48463731021446
C          -5.39247615737476  -14.92791580748279   -5.86622501277947
C          -5.34394404922935  -13.68244587874555   -6.47641446257436
C          -5.14810878024945  -13.78029438174216   -7.84684434561892
C          -5.07066513854792  -15.11559908353688   -8.30055455899864
S          -5.22914396901139  -16.24121430278462   -7.03055114514551
C          -4.85233937819284  -15.10624095963278   -9.69850236692726
C          -4.77491117752539  -13.76280002689814  -10.12478175581786
C          -4.97319029105885  -12.88862261467165   -8.98123397290433
C          -4.99135176615166  -11.52571576114209   -8.99766799797668
C          -4.81675495605211  -10.81422605168147  -10.20508760054565
N          -4.66611308973932  -10.25642004794837  -11.19552537959794
C          -5.15865289658630  -10.73182811968114   -7.84179743253743
N          -5.26787249911232  -10.05884977956714   -6.92074847096703
C          -4.53810047659804  -13.63960938369697  -11.48493016017939
C          -4.44713678163051  -14.87250187883995  -12.11788838119996
S          -4.63155926809350  -16.20326836591324  -10.98220098279601
C          -4.16358714140632  -15.14379477841928  -13.47371980522466
C          -4.20416554997675  -14.28981225631159  -14.53444070404076
C          -3.42114626487661  -14.63457399498281  -15.75812172605089
O          -2.95067285054595  -15.71323822720921  -16.03089843659125
C          -3.29558913851158  -13.36667428743633  -16.50291127707817
C          -2.54436018025890  -13.09015865116386  -17.60899278827566
C          -2.53253092762158  -11.77206348662415  -18.11805852153796
C          -3.29913946336715  -10.76179284359735  -17.46665184781805
C          -3.26662522600516   -9.44543393687216  -17.96900363620790
C          -2.51100751513693   -9.14623114784635  -19.06784781426728
C          -1.75592104577324  -10.14660644624536  -19.71335900494712
C          -1.76626006347439  -11.43244265185568  -19.25015903185562
F          -1.02329139277130   -9.82443105741801  -20.78706866647759
F          -2.47910028132212   -7.89536273498375  -19.54309927817186
C          -4.07879145752990  -11.08055897173466  -16.33122100056800
C          -4.08122904748010  -12.36643853543017  -15.86207138816014
C          -4.78006125459590  -12.97600451317155  -14.73339815518582
C          -5.92526321790286  -12.48446149980859  -14.16417974691937
C          -6.68958874919547  -13.19111888879890  -13.21520021563748
N          -7.33943406753785  -13.74781740099997  -12.45012473354122
C          -6.51382234209474  -11.25462287342673  -14.52924485162691
N          -7.03327945485766  -10.26868860293224  -14.80054336068981
H           3.50715186934477    0.53494935366989    2.18674450473196
H           4.24135239303867   -4.11687116620356    3.73479272080415
H           1.25867653520605   -0.04035429018985    1.44523016508732
H           1.94798736096055   -4.73943585502319    2.96980648218821
H          -3.14423674354859   -2.91391285378939   -0.18978893192024
H          -4.68405672289687   -4.41749074836123   -1.22374222377590
H          -6.46630751890573  -10.29990046795511   -1.79635882920357
H          -4.78854266034741  -13.13550006663104    1.69893941008665
H          -5.44294561343082  -17.47085847256237   -4.46858751170565
H          -5.43245821226540  -12.76330339725716   -5.92363954885182
H          -4.38398137155331  -12.70683197546166  -11.99482064444728
H          -3.78247848204190  -16.13530902133736  -13.69820926876948
H          -1.96147080121568  -13.86375484071539  -18.08517836717079
H          -3.84105515341966   -8.66898177384231  -17.48843293305575
H          -1.18192559150739  -12.18580907240849  -19.75486233388090
H          -4.64039144533942  -10.29674317421862  -15.84831085024904
