112
 SCF done       -233.123852373469          0.000551634242
C           1.42081737797996   -0.31968642941302    5.23405107746789
C           2.77483292203207   -0.31119588356304    5.42143029727466
F           3.37835577065694    0.77411803397543    5.92089014150765
C           3.55195499428392   -1.44024300976206    5.09213942683511
F           4.87642823627426   -1.40381276045235    5.28587683822178
C           2.96386692295067   -2.56244507179812    4.57907915690343
C           1.57126399569528   -2.60103895363090    4.37297214608586
C           0.78396238642249   -1.46086487576317    4.70665587652411
C          -0.61612946313258   -1.47577377897116    4.50798950547697
C          -1.21047455332468   -2.59468650778162    3.98713213314684
C          -0.41392876129956   -3.72526215429202    3.65080137246817
C           0.93840067181095   -3.74411459172492    3.83660382595399
C          -1.28054837996154   -4.77404037963354    3.09202850464511
O          -0.92887874367969   -5.88132041898401    2.72068606256517
C          -2.63660439260081   -4.21594682380207    3.06182839030986
C          -2.60470504784353   -2.89689040175032    3.66878867926725
C          -3.67094011601983   -2.08043462309291    3.93848964695107
C          -5.02520974525932   -2.38637282504132    3.68464485465965
N          -6.14691747538422   -2.56818809403996    3.52033677892938
C          -3.55679425537246   -0.80993300418106    4.54301348846725
N          -3.52912301446227    0.22965245303974    5.02829415938243
C          -3.72715298335762   -4.81054854071610    2.47960189258557
C          -3.84633571720309   -6.05113975224841    1.83477596492938
C          -5.03344482897363   -6.43794827450211    1.19779380130117
C          -4.93346463975300   -7.67786410193092    0.59951349685969
C          -3.65862177700375   -8.26555196650612    0.79684153902702
S          -2.59230770862138   -7.28276415816211    1.68847392577075
C          -3.64491046034575   -9.51162697980585    0.12592731890989
C          -4.89487183582767   -9.71458028613350   -0.48847921847311
C          -5.74206143448762   -8.56440601086242   -0.22335432311365
C          -6.99875304342230   -8.34964674330809   -0.70775059105087
C          -7.62234831538118   -9.27946131527437   -1.56686871910847
N          -8.10383020674059  -10.04026042394325   -2.27710558534997
C          -7.73721783251830   -7.18614730864064   -0.40362094503739
N          -8.33704557216811   -6.24173949367214   -0.15548957727431
C          -4.96642526846793  -10.91280688955217   -1.19477216363650
C          -3.77384476652988  -11.61450993029276   -1.14879401860664
S          -2.56487417436198  -10.80420836795538   -0.16493167052078
C          -3.47557388806558  -12.86040562705221   -1.77159271463358
C          -2.61450861059413  -13.81324308455483   -1.31326113997315
C          -2.74081903591785  -14.98238551901753   -2.15047768559137
C          -1.98111970103165  -16.15113702447517   -2.00102028074201
N          -1.35487432289118  -17.10502143938720   -1.88016376277741
C          -3.70259965929147  -14.75763105156702   -3.10375712239222
C          -4.16054169971628  -13.40808434400678   -2.96788245643503
C          -4.89581063732779  -12.69894321266832   -3.88583218045435
C          -5.77575555457801  -13.24571326633600   -4.94816652482280
C          -6.18511673142704  -12.19225969045676   -5.71893241391736
C          -5.58833687914750  -10.98360991210588   -5.20764225860644
C          -4.84109409557558  -11.28239067708564   -4.09706161460738
C          -5.74829432933053   -9.70942931886453   -5.76955176609759
N          -5.87497777148311   -8.66361762989828   -6.22467799978089
C          -6.20079865704473  -14.60047624137359   -5.04198327201967
C          -6.73963146074430  -15.14029114211136   -6.16497808637090
C          -7.14371356890832  -16.49046539500716   -6.30397081463474
C          -7.15751453789461  -17.51399637123212   -5.36419680599875
C          -7.58544054857784  -18.71892392853429   -5.90943130509253
C          -7.90434591241136  -18.62279498557062   -7.27961849754686
S          -7.68266520081525  -17.04351491991342   -7.88316641080946
C          -8.30870342079838  -19.89572157956509   -7.74204415682713
C          -8.24420720033061  -20.80387629090364   -6.66228014687961
C          -7.80481206788447  -20.09138240554365   -5.47599463791458
C          -7.66312102539312  -20.59997327781605   -4.21846961379359
C          -7.93815994719458  -21.95586178908906   -3.94051582589376
N          -8.16211311185407  -23.06165558208849   -3.73687053852608
C          -7.23963954338614  -19.80147041953749   -3.13537963455640
N          -6.88929692812296  -19.13933221976615   -2.26751372715193
C          -8.63594112567953  -22.08783645822850   -7.01229353579270
C          -9.00623982532730  -22.17930095566470   -8.34825356768042
S          -8.83042113132092  -20.63628703192668   -9.18068364879351
C          -9.42478377813481  -23.30307942487335   -9.08854756691886
C          -9.88324457349098  -24.51107132818001   -8.65262546778032
C          -9.84369529535361  -25.66009166101394   -9.60289675626777
O          -9.64486438150519  -25.60116315546345  -10.79380647552965
C         -10.04040978587386  -26.86088255410827   -8.76934041139105
C          -9.97085487349272  -28.17580286734624   -9.12934974197650
C         -10.16409386424567  -29.16814033146223   -8.14246796632044
C         -10.41714457912651  -28.77551004581830   -6.79573273166967
C         -10.60011190695489  -29.77086872437442   -5.81492159990758
C         -10.53916558659270  -31.09303696638739   -6.15572781165028
C         -10.29050450119207  -31.48001983548744   -7.48822077690468
C         -10.10642659296386  -30.53871563114266   -8.46188168299830
F         -10.23489631017680  -32.78306038796408   -7.79307687712233
F         -10.71566897417044  -32.03758890730705   -5.22347986280768
C         -10.48917051854438  -27.40534460011448   -6.45399843624045
C         -10.31330499439804  -26.46153976913598   -7.42996085597679
C         -10.36632788483928  -25.00115817286586   -7.38043540059776
C         -11.00406218621655  -24.27793657569874   -6.40549956041445
C         -11.25597791255212  -22.89559437204741   -6.49053815458499
N         -11.49606608506614  -21.77336001054913   -6.53082868398511
C         -11.57146070652655  -24.85132136425300   -5.24759772923423
N         -12.05488381704194  -25.26862824708817   -4.29462234516669
H           0.84112887719884    0.55283617224902    5.49208668672623
H           3.57246480017767   -3.41808435277760    4.33158666865570
H          -1.18078686239665   -0.59558764105467    4.76880182573187
H           1.51685109427098   -4.61680091594282    3.57404765503579
H          -4.64976536666813   -4.24249229581609    2.47246081972789
H          -5.90744785287621   -5.81076919698548    1.18583338646453
H          -5.84048797800606  -11.27617784485614   -1.70271932705694
H          -1.97384266072103  -13.74499287996557   -0.45399626482729
H          -3.95136640915166  -15.42736025629515   -3.90355569414359
H          -6.86744515143244  -12.21653391104917   -6.54680423264937
H          -4.22157517688264  -10.59217940972690   -3.55931425103588
H          -6.07926624601794  -15.21751432656786   -4.16450409917405
H          -6.83716835437592  -14.52753301377313   -7.05031152217760
H          -6.87107012745699  -17.37771875298064   -4.33782819951491
H          -8.61099348050067  -22.93556000572170   -6.35222572107110
H          -9.30575857627528  -23.23235899641333  -10.16616036687117
H          -9.77056695065671  -28.45515361485950  -10.15248890799133
H         -10.79465938957400  -29.49197544883061   -4.79113335529385
H          -9.91662612201127  -30.85092999153737   -9.47688019633381
H         -10.67045959228152  -27.13617494727220   -5.42572735331730
