96
 SCF done       -199.812116092831          0.000728190033
C          -0.32113276249766   -1.60822935391632    8.81971654325881
C           0.13843902386735   -2.04966829953511   10.02898787273916
F           0.69560525678267   -1.19063418925219   10.89167852382086
C           0.03320894581072   -3.40972936000219   10.38342673997913
F           0.49259093976620   -3.81439221653889   11.57472349747645
C          -0.53049978025342   -4.31005025582382    9.52313846350989
C          -1.01267287023920   -3.88587658131319    8.26982617839360
C          -0.90738110078024   -2.51099690861709    7.91022074696217
C          -1.38452699327539   -2.06118041073359    6.65722314381954
C          -1.94781851539284   -2.95884315381688    5.78943061490651
C          -2.04369275746583   -4.33049980608136    6.15655022418555
C          -1.59572661771137   -4.79498073967335    7.35939554381892
C          -2.66652132967973   -5.07976189260636    5.05392409638909
O          -2.91167455877600   -6.27461373180308    5.03995955455077
C          -2.91758533162722   -4.10840475231098    3.98526646088924
C          -2.51621201676613   -2.79429222641330    4.45263263306963
C          -2.66257967204486   -1.59804974424124    3.80045448239725
C          -3.25354167034982   -1.41804225159525    2.53177975073162
N          -3.72511737779226   -1.18699987363328    1.51046307430939
C          -2.25575610679474   -0.35550327107193    4.33192111213081
N          -1.94271433618398    0.68394617948050    4.70485219723528
C          -3.39646455323508   -4.40929098433412    2.73447299468892
C          -3.80320743247927   -5.63539029770115    2.18943922595049
C          -4.21632935098142   -5.74568042735153    0.85458952508150
C          -4.57990227892341   -7.03377845727700    0.51721591590596
C          -4.45822655603605   -7.92777730732146    1.61008929758812
S          -3.88071496467544   -7.18591887368379    3.02926613445194
C          -4.85032167081563   -9.21232890554498    1.16572900265097
C          -5.21706201335356   -9.13958242490456   -0.19112043775115
C          -5.05645953960068   -7.76729783836029   -0.64487326191634
C          -5.29091433859292   -7.28294829832011   -1.89760083130503
C          -5.75023493301091   -8.11161705715805   -2.94328011302099
N          -6.12142223523165   -8.78953320253131   -3.79020164707730
C          -5.08319953826177   -5.92815213630275   -2.23444092390007
N          -4.91073894739978   -4.83089282403204   -2.51687898264973
C          -5.61138124600913  -10.36833261278220   -0.71512315165525
C          -5.54821129602342  -11.37682980627525    0.23181464802092
S          -4.99616268631269  -10.79498347175674    1.79469927289960
C          -5.85436805431270  -12.74785953773584    0.04869996345376
C          -5.78662299009893  -13.76100947715203    0.98901673346044
C          -6.13590212584472  -14.99697950253505    0.44912048849792
C          -6.47402134312597  -14.92331814956704   -0.91533369044088
S          -6.36607978554405  -13.33373631829439   -1.52894020032398
C          -6.79035507018585  -16.22387220693678   -1.37509892125930
C          -6.65159036900870  -17.12518007530739   -0.30071715530847
C          -6.24169321303542  -16.38131430825813    0.88083495174035
C          -6.00310147375981  -16.87888893574965    2.12789917973112
C          -6.13496343554908  -18.25272149554259    2.42110141191059
N          -6.24003288207943  -19.36971540004290    2.65697763313871
C          -5.60846668443205  -16.05161202864954    3.20065373761642
N          -5.28683668727857  -15.37676614682078    4.06983878881146
C          -6.92372571165358  -18.44006102289533   -0.66088823431218
C          -7.27065761035279  -18.56418453749648   -1.99948953315705
S          -7.26013852739489  -16.99811511522461   -2.81927154206586
C          -7.58088506725468  -19.76122251939601   -2.67925929900890
C          -7.94375943295635  -19.81443426442005   -4.00742285470124
C          -8.16795893847454  -21.10523039468690   -4.54902975580862
C          -7.96900458976774  -22.16820240594596   -3.68956482056006
Si         -7.55814135129605  -21.50727233940527   -1.98627165376222
C          -8.11546846105887  -23.53687455586471   -4.01254464716213
C          -7.96132554922812  -24.17459854444314   -5.21598332919043
C          -8.18242370816139  -25.59337575506013   -5.42591134618074
C          -8.90249712295386  -26.43370709444663   -4.61501741956332
C          -9.10297945480302  -27.80417717491839   -4.87954921912412
N          -9.29058565216135  -28.92564664067196   -5.03846953372016
C          -9.57240148348492  -26.04677168439443   -3.43556728037902
N         -10.16551327242402  -25.80716016872522   -2.48148033686734
C          -7.58034840460257  -25.95867825348316   -6.70186007361206
C          -7.06639069760725  -24.78716022663789   -7.30787388098500
C          -7.31647460809077  -23.62390474467019   -6.43204425462706
O          -7.00174693616515  -22.47721127137890   -6.67215433498829
C          -6.44077909586970  -24.79829079391821   -8.53064876003503
C          -6.31338926527357  -26.02707902862837   -9.18674009073613
C          -6.82378044671969  -27.19439451601742   -8.57015183112125
C          -7.45876436549298  -27.18196999764863   -7.33433376858739
S          -6.55247255257845  -28.60445935521135   -9.54853374721949
C          -5.77126509594227  -27.62002116434800  -10.75730800363204
C          -5.71428563113244  -26.30324625199710  -10.44612923454195
Br         -5.10299639829697  -28.42354253796952  -12.31450458489114
H          -0.23325832147768   -0.56370850412913    8.56453729058233
H          -0.60350064650098   -5.34763611706087    9.80912006598204
H          -1.28702475412993   -1.01518445610432    6.41665971352622
H          -1.68315657316546   -5.84088974857043    7.61140147326616
H          -3.46940840245137   -3.59065484520042    2.02857055522987
H          -4.23507405800741   -4.89966311329146    0.19030850840927
H          -5.92827345860515  -10.53965882895513   -1.72826291398018
H          -5.49228065928593  -13.58933938252146    2.00888540984612
H          -6.87727953175272  -19.28856678508712   -0.00325371689566
H          -8.05248858484989  -18.93153522282086   -4.62125184018060
H          -8.50722822422984  -21.21808392450616   -5.56470322517481
H          -6.24256428712166  -21.90257610344042   -1.48586938509571
H          -8.62453528242890  -21.72791754030692   -1.01309527377674
H          -8.31068696678015  -24.17179553410937   -3.15556374004500
H          -6.06228316692279  -23.88759753134714   -8.96780853688406
H          -7.82650607787040  -28.09839079524916   -6.90409191949627
H          -5.26812424711722  -25.55637786047663  -11.07707013762556
