86
 SCF done       -169.541858420151          0.000593315164
C           9.44887046025091   -1.26322780486562   10.29632971938569
C           8.85178271964581   -1.32730542590166    9.07615699486753
C           8.84127780654075   -0.06989480301079    8.43974143432652
C           9.44662120901280    0.92872209332576    9.22081362649657
S          10.01736214500916    0.32428016533739   10.71316892875386
C           9.39777997354938    2.15443250330999    8.51219962418999
C           8.75957196159059    1.92877200930048    7.27969461204052
C           8.38792623928038    0.51666592197635    7.19971139273054
C           7.74691658717888   -0.10981388138343    6.16852360099604
C           7.33704234010355    0.54697839717902    4.99097037058629
N           6.98312412835154    1.04240467109106    4.01824542206329
C           7.44141688899656   -1.48644378673904    6.20835313159590
N           7.19026078216794   -2.60556064040585    6.23118472658576
C           8.65972760898784    3.06568550049051    6.49199061095940
C           9.22098215428938    4.18520394097377    7.10620746623243
S           9.87429693993166    3.78532683672366    8.69730767704321
C           9.34172610384654    5.50918382438025    6.65592968329403
C           8.93160625249385    6.02654163928544    5.45087551143220
C           9.10240694087004    7.37344186187319    5.03424963884793
C           8.63446433604949    7.64020216223180    3.78407870101674
C           8.06101651774713    6.52137251434187    3.13830083536533
S           8.13355384707032    5.11941354769891    4.18244309105872
C           7.50935572943536    6.39880575577417    1.88185745831672
C           7.38704227748103    7.37648585451714    0.86521353013967
C           6.82050401501822    6.89402777019568   -0.27119162412721
C           6.46622795305117    5.51576100501156   -0.20554286642511
S           6.86037564180410    4.84519327680841    1.35791725651998
C           5.91039603147759    4.74051635506589   -1.17940022709151
C           5.63840237574781    3.36385056429834   -0.90638241425914
N           5.92726919317352    2.95811208408490    0.33810442386600
C           5.68795613265248    1.70432197740470    0.66533382810441
C           5.15085861358577    0.81778514080944   -0.25235860178968
C           4.89993677956113    1.30804607442300   -1.54612311032142
N           5.14204929690001    2.58015561820204   -1.86005621459383
C           4.39397992471657    0.43638240384317   -2.58357147763798
C           4.30800208217808    0.83313543079310   -3.86789103184683
C           3.87223959689475    0.02626636657311   -4.95579668944237
C           3.33392939729283   -1.24711222513252   -4.94967360402634
C           3.07082533008626   -1.71494500951431   -6.23787512226213
C           3.41797298886053   -0.78883091382334   -7.23721736302924
S           4.04536059497517    0.65658072304993   -6.58899502724248
C           3.14681973342881   -1.36871716206666   -8.50346746343028
C           2.62189025974925   -2.65530346016859   -8.30475412224277
C           2.54892346291117   -2.91288821001630   -6.87462879373737
C           2.08922449631320   -4.04285305556666   -6.26247712347742
C           1.60196105713884   -5.14610806709193   -6.99329063804509
N           1.20875536714217   -6.04511554830396   -7.58691861675839
C           2.07025854734645   -4.18009264168528   -4.85906262944077
N           2.05270441747805   -4.29563098277153   -3.71816929858155
C           2.34501264376941   -3.31994847462898   -9.50068924517307
C           2.66189998172322   -2.55109182474370  -10.60395065538249
S           3.30170457669550   -0.97520244240274  -10.15849424671818
C           2.54425324547971   -2.90541026913566  -11.97307839957776
C           2.92270035053840   -2.15832230599679  -13.07203012619329
C           2.67970887675850   -2.83356275163427  -14.26945691364881
C           2.10970556261453   -4.09858542071797  -14.07735346583167
S           1.87253972116855   -4.46485541297741  -12.42647644002555
C           1.90813432340173   -4.70041032314054  -15.35247919405827
C           2.35358819742390   -3.81419170578351  -16.34052123539153
C           2.85523724406972   -2.61334829496162  -15.70018676668957
C           3.38890679205800   -1.50990334155607  -16.30040031633196
C           3.51897775698168   -1.40395777566600  -17.70073385950818
N           3.62830953617242   -1.31204880480666  -18.83862379854750
C           3.84950937228781   -0.40208889844398  -15.55908653424872
N           4.22665578589269    0.49952750368978  -14.95869997444736
C           2.19288335201425   -4.33334225412109  -17.63978148958960
C           1.63982045417564   -5.57702335094210  -17.61117789140013
S           1.29968447091890   -6.15212824312111  -16.01162826332424
H           9.59904306730487   -2.05834308253993   10.99870610774775
H           8.44301257881087   -2.22937400497847    8.65887550496290
H           8.20468592362739    3.08981055146570    5.52039639921078
H           9.82467483203263    6.19961015193406    7.33578135560993
H           9.57214634537707    8.09877315328501    5.67541184495053
H           8.68516256979811    8.60381873025851    3.30928797333423
H           7.72143237900621    8.39161646339318    0.99316626287128
H           6.64373156956303    7.47143295951048   -1.16193455932706
H           5.67490194953237    5.13334718901731   -2.15451645831293
H           5.93879632042581    1.41899472418005    1.67840525911513
H           4.94727946774460   -0.20863880570371    0.00457200835505
H           4.12077372848181   -0.56401297949667   -2.28151731257949
H           4.62224802282289    1.84127770717168   -4.10246271969686
H           3.14174763739281   -1.79948860710614   -4.04865718324554
H           1.94151637067753   -4.31354225242846   -9.57957617657901
H           3.35542606950043   -1.17749788310379  -12.98863897396803
H           2.46810305937309   -3.82250454532625  -18.54428195433173
H           1.40347062490252   -6.21030545007195  -18.44260779897351
