109
 SCF done       -209.332794433948          0.000800049621
C           0.82269718638848   -3.23169893494390    9.35515176364325
C           1.20505927630254   -3.82999753214663   10.52331879668072
F           1.94886011376054   -3.15786423671580   11.41248300757839
C           0.82441106112574   -5.15605042756988   10.80763912295906
F           1.21270709272411   -5.71900439029172   11.96112375104531
C           0.06697171314904   -5.86665356708684    9.91909847316350
C          -0.34152468224615   -5.27810952044863    8.70706872597925
C           0.04109218960828   -3.93660588781776    8.41844577196155
C          -0.35822969249287   -3.32330684781814    7.20758110008369
C          -1.11504648536783   -4.03092461351709    6.31237005866450
C          -1.48666059660182   -5.37140110948771    6.60871584140238
C          -1.12055282837236   -5.99045381466298    7.76828924634525
C          -2.27458146346633   -5.90842581334446    5.48741431895054
O          -2.76064605586413   -7.02943792691150    5.43427336599162
C          -2.34427370511126   -4.84860627312511    4.48416594397498
C          -1.66758493940911   -3.67781680162121    5.00460421309965
C          -1.56571820563123   -2.44044980599954    4.42049218513410
C          -2.12864321676804   -2.05975394156869    3.18475828765198
N          -2.55975265303456   -1.66399819615532    2.19601006392720
C          -0.88515385630562   -1.34987093334982    5.00061317573002
N          -0.34500957606778   -0.42574810256026    5.41622563726692
C          -2.91136356080357   -4.95591857871309    3.23155683473193
C          -3.55878765048811   -6.03244144989852    2.62218631952149
C          -4.02688838885738   -5.98344535908108    1.29856237421376
C          -4.61464445831807   -7.16471159391216    0.89647694273622
C          -4.61445704340122   -8.13746844617613    1.93154042924049
S          -3.88387126884501   -7.60022891513547    3.37083523563659
C          -5.20633085675514   -9.30798656175631    1.43140912385961
C          -5.58236132865891   -9.10779952347657    0.08793164498592
C          -5.23162284381595   -7.74463314329500   -0.28637890857102
C          -5.43998673320468   -7.14599821843732   -1.49480646831155
C          -6.05661662844976   -7.82368998875814   -2.56691093020981
N          -6.55742055916628   -8.38086631836910   -3.43528814795977
C          -5.05610510413707   -5.81305101273753   -1.75130151109723
N          -4.74418574882250   -4.73163261854924   -1.96949103699932
C          -6.14855439696495  -10.23939777231698   -0.49135860435591
C          -6.21996597628195  -11.30246823500291    0.39843984495819
S          -5.56911241816625  -10.88415905322887    1.98342039724386
C          -6.68650888126577  -12.62426794306151    0.17452033181125
C          -6.76295729919863  -13.53509620733215    1.20426603561967
C          -7.12994660924250  -14.86694243372528    1.07845612206767
C          -7.62426148967696  -15.39055292230304   -0.20280449407745
C          -7.65381047552217  -14.67176228187906   -1.34586866352581
S          -7.11255871831357  -13.04553173739968   -1.48198023644933
C          -8.04262232512678  -16.72081163282499    0.07754402314261
C          -7.82287618591259  -17.01068343263839    1.42793053626056
C          -8.21487057755713  -18.32658637365867    1.76061788753129
C          -8.71279978387720  -18.98533816970759    0.68258999674511
S          -8.72401397131167  -18.04671428730901   -0.77458290459851
C          -7.22400550684577  -15.87211537227641    2.06488713425548
C          -6.83875941333438  -15.79700102861329    3.42718034835256
C          -5.92086096607623  -14.92740258280144    3.92453063327658
C          -5.64730208910620  -14.68690426228836    5.29059167921559
C          -4.80290104544971  -13.71166260064563    5.78017146050665
C          -4.80125175828957  -13.59067010049653    7.17575984056210
C          -3.97049232541850  -12.61505855033067    7.88743459460023
C          -3.95874786659865  -11.27942824449008    7.45617615323328
C          -3.18605495538395  -10.34110166731913    8.13218068280571
C          -2.43014076032550  -10.73309256455758    9.21852113676186
C          -2.42314529459579  -12.04595494127702    9.65291935054569
C          -3.19436042969043  -12.99129879374342    8.99121165040720
O          -3.24624844683164  -14.31475534770320    9.33695375258559
C          -2.57497637779888  -14.73366916895789   10.49885326444535
O          -4.74002413914040  -10.98811645869021    6.38439495424891
C          -4.91791667526984   -9.63589912021381    6.02849499921688
C          -5.64412176857581  -14.51242342768410    7.78138964742287
S          -6.44174526543897  -15.51394178319529    6.60199499127434
C          -5.92880535465832  -14.66459639882741    9.17068607481685
C          -6.15289113834855  -15.77063906052793    9.93091702450594
C          -6.37606026609462  -15.36447679975512   11.31506486709936
N          -6.31509808398805  -14.00379973380937   11.37642328705178
C          -6.05611179390614  -13.49587280952076   10.10358176167216
O          -6.00000236142766  -12.31676196413570    9.85871234029377
C          -6.51702758672268  -13.18387929481564   12.53970700234163
C          -6.54120624724215  -16.45689327568017   12.08241541468919
C          -6.41174972080928  -17.62131718220559   11.18741039218160
O          -6.46114922301902  -18.80040333626465   11.44962622359921
N          -6.18281708049216  -17.12991548023656    9.89044853223675
C          -5.93121732678662  -17.98976011489378    8.76761486579973
H           1.12246384438944   -2.21519317244962    9.15345490948885
H          -0.21604706320951   -6.88135602631264   10.15117648689415
H          -0.04927136190896   -2.30786735664174    7.02135302743278
H          -1.41575866455568   -7.00973044422534    7.96642006963087
H          -2.83909229482821   -4.08610795373225    2.59009860686757
H          -3.91549288937086   -5.10382927465657    0.68912190735575
H          -6.49740490626686  -10.30871735419773   -1.50608568290388
H          -6.54082900429189  -13.15604097117663    2.19149853752395
H          -8.01623602271845  -15.07666895129967   -2.27756729753976
H          -8.13507788974853  -18.76250556733346    2.73974907100901
H          -9.08485062816867  -19.99033312485589    0.64044995064265
H          -7.31893087278800  -16.48967727876903    4.10790329912402
H          -5.32674358508419  -14.33095295058615    3.24678462846482
H          -4.20625768268875  -13.08974554863367    5.13837304949243
H          -3.17480537073423   -9.31152106563671    7.81481750439751
H          -1.83259154450693  -10.00322621047753    9.74446839964470
H          -1.81976203442661  -12.31816050400513   10.50334959119593
H          -2.81705612000705  -15.78977901141739   10.61396018193464
H          -2.92010903570861  -14.18686267295169   11.38254254433483
H          -1.49032947133815  -14.62175442547768   10.40273802602707
H          -3.98112714578614   -9.16389491230427    5.72177034034713
H          -5.36078931355773   -9.06494117854318    6.84958093839661
H          -5.60690332677424   -9.64712093800070    5.18484389131030
H          -5.77642008700538  -13.41731465313007   13.30722617330865
H          -7.51677660805028  -13.33809723696235   12.95013024169082
H          -6.40738665002984  -12.14533499034454   12.22914307209911
H          -6.72150281890996  -16.54653180950526   13.13447736159474
H          -5.91227175500689  -19.01169838673487    9.14628943046973
H          -4.97131634345801  -17.74848642370340    8.30847062498619
H          -6.71914148003919  -17.89425525203879    8.01781203018958
