81
 SCF done       -169.686873488103          0.000748653489
C          -0.01607574900647   -1.57661767615189   -5.02507758623848
C          -0.91497835835968   -0.79633150803103   -5.68601965417507
C          -1.06730998887347    0.45435888739916   -5.05689130240219
C          -0.26222057745311    0.58122013254739   -3.91867574922500
S           0.66923714028207   -0.81798472474900   -3.62544626344428
C          -0.48039284739681    1.86834117184886   -3.34823784789855
C          -1.42345538496788    2.54612679481439   -4.13115010646707
C          -1.82346611427810    1.67961686776413   -5.23409992131507
C          -2.71932036696747    1.97040373746254   -6.22102309808746
C          -3.38935711203642    3.21009168423388   -6.28326518299217
N          -3.93588393726257    4.21676344505298   -6.33847146060150
C          -3.03410291084705    1.05373036383039   -7.24596035328150
N          -3.29453579907618    0.31307282815351   -8.08153208639516
C          -1.71223864602881    3.82460381973057   -3.65095551202492
C          -0.99292880810484    4.12068794987820   -2.50879235365227
S           0.05719277188441    2.79844412203854   -2.02122638897536
C          -1.03234842803807    5.31712594643206   -1.74710222485047
C          -0.30408219973974    5.62368976924891   -0.61374550977401
C          -0.60767779377512    6.89598763788935   -0.12635121827947
C          -1.57652148308324    7.55920193427884   -0.89647253932409
S          -2.11193895495167    6.62242839327950   -2.22043373333883
C          -1.81937531226005    8.83162271335173   -0.31989435626146
C          -1.00180259012576    8.97609572889164    0.81246382862767
C          -0.21483813558104    7.76232475453029    0.97415045744784
C           0.69075038056821    7.48844355486434    1.95597790566003
C           0.98644743412714    8.40787140268887    2.98480922945095
N           1.22466275210295    9.15091103298795    3.82466244639074
C           1.38782440968965    6.26295541212963    2.00993490762965
N           1.95611350414867    5.26795789555677    2.05500487647822
C          -1.17528264540782   10.20238995465458    1.45576408520533
C          -2.12218404002282   10.98784114584776    0.82575916950897
S          -2.80450441592799   10.19996975193196   -0.59111521253006
C          -2.57739473507771   12.27628807104917    1.20485368597758
C          -3.58006798272663   13.02575160621388    0.62355119484214
C          -3.80033383878197   14.24329341146273    1.26170381519682
C          -2.96592532992038   14.45503324078756    2.34047460109046
S          -1.88338014635019   13.10991993041001    2.56736297718645
C          -2.93598480223747   15.57379654028489    3.21161992193997
C          -2.04537125854501   15.82930015810908    4.23715331183545
C          -2.33612902274981   17.02495912776488    4.89584839158290
C          -3.46189381357406   17.67927424900768    4.37048246847887
S          -4.15365405511664   16.83382939924096    3.05796781661625
C          -3.68851843401436   18.86369594767325    5.11625909811873
C          -2.70212199269885   18.96258745420854    6.11059370115138
C          -1.81389558408994   17.81578461629057    6.00063745763695
C          -0.71922192412650   17.54490040972241    6.76701396787657
C          -0.30965811373176   18.39708685599383    7.81428401379946
N           0.02624467667376   19.08787862781715    8.66567067349853
C           0.07898366802094   16.39959989407086    6.56104419950544
N           0.73213684927665   15.47244417536306    6.39392189917462
C          -2.85095367379865   20.09549666565084    6.91237196744907
C          -3.94394374842808   20.85333314527628    6.53820948748103
S          -4.79921056463191   20.16014384692395    5.16667521550757
C          -4.41372550530661   22.05395950514971    7.13067641165082
C          -5.53200036683747   22.78561196364870    6.77875951591951
C          -5.69642448986287   23.90835635735966    7.59166387360599
C          -4.69559376850112   24.03050356969209    8.56386092617367
S          -3.55025347099846   22.76669928344649    8.48526979531355
C          -4.95685313796559   25.19918290343263    9.33558151807989
C          -6.12041890534469   25.80598966706389    8.84799717742307
C          -6.62849036032926   25.02048979383975    7.73928731676370
C          -7.74400537925664   25.25941352216674    6.99120363712077
C          -8.58311421069972   26.36913644007523    7.22420468242349
N          -9.27004727477802   27.26839198566493    7.40903850739491
C          -8.13381865031009   24.41037886832497    5.93437796230943
N          -8.45298040203430   23.72101507198801    5.07525622006818
C          -6.45479700453785   26.97505526932230    9.55840507528684
C          -5.55622568891136   27.22566442428039   10.55011967476417
S          -4.28272954474289   26.05407239604677   10.64937824958475
H           0.29731810181696   -2.57106794677467   -5.27213553144332
H          -1.43637113581152   -1.10601962183737   -6.57317678953852
H          -2.40612203127832    4.51399718607369   -4.09758986559229
H           0.40685407329082    4.94525332822958   -0.17728180302140
H          -0.65328516470904   10.52172180530277    2.33990567777178
H          -4.13307324903759   12.68667931444134   -0.23451975314421
H          -4.54288759034720   14.95853872272448    0.95493014612192
H          -1.23289607091160   15.16712282810795    4.47712141493439
H          -2.20882491122703   20.36466079258472    7.73177230925502
H          -6.18418850437997   22.50141490141695    5.97247563740314
H          -7.30699173475067   27.59672619873623    9.35324628151445
H          -5.55643558882015   28.04010917180192   11.24642462115006
