78
 SCF done       -180.730513082047          0.000340268774
C           1.14991359105228   -2.66014318302113    2.98282675704273
C           0.39687040040029   -2.54777384816863    1.85336934840410
C           0.12213253916298   -1.19992186854095    1.55393416277402
C           0.68730333021630   -0.32025322202134    2.48473614058668
S           1.54534614862379   -1.13950460023694    3.71188757928020
C           0.36065486544543    1.01438910046600    2.10922491637809
C          -0.41257181433052    0.96637033186701    0.93864168259095
C          -0.58698717663854   -0.42670235576810    0.54971433485512
C          -1.27139464657202   -0.89878736277070   -0.53185540404854
C          -1.92329899792612   -0.04251329802149   -1.44438208633374
N          -2.45666446290240    0.64382011160593   -2.19228596285553
C          -1.37244546201184   -2.27777015914195   -0.81157966941172
N          -1.45596347973388   -3.39808810516289   -1.04194123133009
C          -0.78914862211168    2.22873177487497    0.48587286581310
C          -0.30826576457169    3.23835115446630    1.30168150069935
S           0.62663901843894    2.60346238916760    2.65088423164658
C          -0.50820335390751    4.64509077921180    1.13274595773267
C           0.01882593010640    5.60450276559022    1.98821143992855
F           0.76457783842132    5.22084239422780    3.04251321614657
C          -0.17334110208171    6.97982713308026    1.83111438391230
F           0.40825426249406    7.77344509650583    2.75093329590099
C          -0.91520136501902    7.54678644281155    0.80188353233729
C          -1.47547647510976    6.59886148858956   -0.10229670522633
C          -1.27618820055330    5.18134374480926    0.05902370571342
N          -1.88971552818632    4.48984311465711   -0.89830636979955
S          -2.63646969754738    5.49983374652179   -1.89574251504282
N          -2.22368125132085    6.86901353478027   -1.16901836530263
C          -1.11082949430305    8.95598036369178    0.65172200277562
C          -1.84172935239044    9.59268796555737   -0.33819069504953
C          -1.83279161636537   10.97661806115979   -0.18666031134529
C          -1.08680611096249   11.39817962534420    0.92891457382423
S          -0.40129276973849   10.09898383282525    1.78556358991311
C          -1.14153345871290   12.81236326700449    1.00361877504332
C          -1.92331508544623   13.28665917458778   -0.06552049835729
C          -2.38236032300459   12.15019328138644   -0.84981261697637
C          -3.16335664866739   12.16902360790090   -1.96747883588607
C          -3.65001379503198   13.36617008134117   -2.53475217282444
N          -4.05337710315125   14.32924047369300   -3.00819320485420
C          -3.54231756865224   10.98694636340046   -2.63916562738759
N          -3.85682859935433   10.03376714765861   -3.19366318786045
C          -2.04105377455445   14.67554218036218   -0.06954607341517
C          -1.35674752049401   15.25678285542248    0.98603348317760
S          -0.55144713068372   14.06596292244016    1.99657023252608
C          -1.24640015218095   16.63895268752715    1.33852673865360
C          -1.83925907620835   17.69536419726063    0.65609821704816
F          -2.57708574561495   17.46833365577730   -0.44203777307305
C          -1.71937798057154   19.03201195042093    1.05576067216542
F          -2.35716810452933   19.94273850667761    0.29617046816676
C          -1.00177926155228   19.45815075098159    2.16807717393811
C          -0.36595802817537   18.40650108136785    2.88774733162500
C          -0.49196881079793   17.03602110789678    2.47576134366978
N           0.17235730471346   16.21236895479781    3.28102568714553
S           0.88754413441950   17.06638749243495    4.44136193995830
N           0.38820993770738   18.51768743702107    3.97875142617201
C          -0.90414736780518   20.82431578945233    2.58071156033716
C          -0.21019282452087   21.30245515674699    3.67923975602205
C          -0.32914000179461   22.68303591395349    3.81240454266235
C          -1.11916699828385   23.26306038415109    2.80716646374263
S          -1.71257767236582   22.11565590087178    1.70077690930001
C          -1.17748755473881   24.66720463873515    3.04147964996509
C          -0.42786199237258   24.96366693732307    4.18648584493905
C           0.13242671818669   23.73163784309422    4.71175212210607
C           0.92239826702498   23.57920364154548    5.81364670997669
C           1.31160518944615   24.67239789307926    6.61577510241694
N           1.63138821657093   25.55797204334211    7.27037208489370
C           1.40363920751738   22.31926131604073    6.22804686577660
N           1.79908503297586   21.30036912168077    6.57550023811966
C          -0.43660763043744   26.33727766017361    4.49399903532152
C          -1.17799544390481   27.04089162998182    3.59359522085016
S          -1.88332523277521   26.06010758990234    2.35233410907103
H           1.50734805054442   -3.55776157298096    3.44642591869449
H           0.06128611128513   -3.38792777490243    1.27351313512931
H          -1.38119220752069    2.43311851709998   -0.38649492936822
H          -2.34427003455493    9.04756325425056   -1.11522898512955
H          -2.59599927192891   15.23390839511461   -0.80010598167135
H           0.34352098863781   20.65458761310019    4.33251605464516
H           0.07184695953645   26.78423797409702    5.32856564193116
H          -1.36103489829311   28.09666400781095    3.57731952916674
