101
 SCF done       -206.557460735418          0.000762187565
C          -9.08851014249781    2.28776615199614   -1.25669543418457
C         -10.06383180299011    2.95288494130419   -0.56814771594634
F         -10.40228349699259    4.20159423943602   -0.91704196637825
C         -10.72585667728612    2.33719776805060    0.51272121366184
F         -11.68011951755593    3.01259216180333    1.16820116812440
C         -10.40301815626675    1.06398276127487    0.89050285095310
C          -9.40487421440203    0.35115227293151    0.19856946252838
C          -8.73377733943068    0.97281524145164   -0.89410425409909
C          -7.73076815245757    0.27536197301247   -1.60602800806062
C          -7.41517411707330   -1.00627776282911   -1.23957223304873
C          -8.09541684957800   -1.62083868826768   -0.15296401249862
C          -9.06198105514346   -0.97133105929741    0.55830855936870
C          -7.60337763837466   -3.00245050130307    0.02323555051797
O          -7.99240182860485   -3.79371703092278    0.85576575116482
C          -6.62284822757157   -3.21408689034724   -1.06614253846133
C          -6.45559261585305   -1.96372960233047   -1.78036877703154
C          -5.51621886905742   -1.69048727572778   -2.74177877534549
C          -4.52424612385758   -2.58944085342124   -3.18657726962464
N          -3.67701949413766   -3.25752876656261   -3.58068314126715
C          -5.39468912980496   -0.44504479339461   -3.39200742497599
N          -5.25461377924474    0.54086721429946   -3.96347775072130
C          -6.11789158646921   -4.41589624721965   -1.49176112216211
C          -6.15720215297808   -5.67290097112825   -0.86528500563149
C          -6.37375007030843   -6.05005427325899    0.45503246640453
C          -6.32393953681417   -7.42564771678871    0.62407338165909
C          -6.07169462899541   -8.12641570951398   -0.58200625724072
S          -5.84704886067979   -7.07929197744948   -1.90201679260098
C          -6.11502052031182   -9.50813057318791   -0.31270815627358
C          -6.38394320969421   -9.69799576612542    1.05580060516518
C          -6.49889578536794   -8.39110848934102    1.69216158507364
C          -6.71012726276360   -8.14378973457204    3.01704170705770
C          -6.87276159508421   -9.18967141808316    3.94951388039405
N          -7.00749238653935  -10.04363527735477    4.70333034933092
C          -6.75598489953948   -6.84030206215279    3.55741590697398
N          -6.77138253730943   -5.79455133532151    4.02607680744210
C          -6.48373518510265  -11.03752666040487    1.41377490464846
C          -6.30169156304559  -11.88362729547848    0.32857052292645
S          -5.98233967638109  -10.99378060639788   -1.15479558581570
C          -6.38694659910872  -13.29570810288727    0.32283289809103
N          -6.23968121697631  -14.04157726908315   -0.82751987258085
C          -6.42319083607419  -15.35179908456435   -0.51655851603612
C          -6.47170858417648  -16.63365210687724   -1.04509071429716
C          -6.76709200359563  -17.48671208074364    0.03144571616118
N          -6.88769632841466  -16.73616482121562    1.18555774297191
C          -6.68563328224123  -15.43042913723328    0.87848554918295
C          -6.66135729884148  -14.14506271419301    1.40442279165068
C          -6.97845154294613  -18.88355551619118    0.05792623671047
C          -6.83958120969742  -19.70777569019610   -1.01800714626833
C          -7.08863592485484  -21.09568340076718   -1.06487423311049
S          -6.38490652945539  -22.00117580529579   -2.35774000306134
C          -7.02955270929221  -23.52267146275031   -1.80368011482913
C          -7.77421088173884  -23.32602994635374   -0.61602398914551
C          -7.83465009355991  -21.95137672882102   -0.22498391749896
C          -8.65266658018625  -21.58481058790681    0.85574245177202
C          -9.28740841802848  -22.55052586057510    1.58737824967439
S         -10.31558931997233  -22.06892809290736    2.97001828627581
C          -9.10615250703302  -23.92704515788840    1.30182027871873
O          -9.64654958594553  -24.88127624488429    2.08179900726845
C          -8.38560701612496  -24.29767033697030    0.18804947298263
C          -6.75285871988636  -24.64858366627745   -2.58888986892679
C          -7.30199724645713  -25.90235421929079   -2.50167408178919
C          -6.91014857574704  -26.92584088610135   -3.37392649307025
C          -7.44067423175931  -28.19625058227943   -3.37881174922115
C          -7.07160524845677  -29.28458764439043   -4.25404942612256
C          -6.10796909481153  -29.27939136400667   -5.23241617452106
C          -5.79902159618130  -30.38905521561771   -6.04586009859914
N          -5.49786764422898  -31.24908069698139   -6.74460570205037
C          -5.28614209007122  -28.18536693423885   -5.57162063174104
N          -4.57440485751375  -27.34873738652840   -5.90884027696323
C          -7.91533877616764  -30.43099280001998   -3.91312550976657
C          -8.76891028018427  -30.06821305022555   -2.85778017265448
C          -8.50892225379940  -28.66311858277071   -2.47152828317907
O          -9.07174277574843  -28.04781156758112   -1.58830341847757
C          -9.68465546075029  -30.95054250288280   -2.32404950806106
C          -9.75288790048794  -32.23171557813556   -2.85748514751964
C          -8.90745581736619  -32.60261969919193   -3.90734340340568
C          -7.98495335918398  -31.70902002522387   -4.44178487963492
Cl         -9.00118986073254  -34.18979970177873   -4.55908918723347
Cl        -10.88179269161436  -33.36056271138110   -2.22286729100873
H          -8.59074019373796    2.77436722120744   -2.08089025761173
H         -10.91883513363777    0.60609200346635    1.71993666674439
H          -7.24530216727382    0.77088927915082   -2.43111639685594
H          -9.55979560259251   -1.46187221387074    1.38083592938559
H          -5.66251619057570   -4.43022668827701   -2.47565088055385
H          -6.56203095278667   -5.34010928145561    1.23840852806771
H          -6.68872824399895  -11.39703053071995    2.40435325808827
H          -6.04290165613959  -13.65697796494038   -1.73584765047564
H          -6.32705282392844  -16.93373318796379   -2.06247041901600
H          -7.09241593446509  -17.11410944496065    2.09471210334737
H          -6.81957419344246  -13.83774320485810    2.41748617170680
H          -7.24097294519849  -19.29816953134647    1.02020981457348
H          -6.45106290601710  -19.28366631200296   -1.93418398651622
H          -8.82122323184419  -20.54923184661428    1.09632220101918
H         -11.39517368664792  -22.75805720155871    2.58684594753874
H         -10.00403113531830  -24.48126088813564    2.89127811908776
H          -8.29342385669619  -25.34932762155331   -0.01569700171980
H          -6.04014556511048  -24.47887654059377   -3.38985553775534
H          -8.07310777702466  -26.12605311526220   -1.78566631717461
H          -6.13374550534187  -26.68816321517399   -4.08955206153739
H         -10.33034581771374  -30.65023250459608   -1.51401574521263
H          -7.35134684274796  -32.03250763173533   -5.25105580935813
