95
 SCF done       -174.957291030119          0.000700529656
C          -3.34432661378557   -1.85699121783184   -5.16377216903256
C          -2.07825371188983   -1.86392924484048   -4.67380038753102
C          -1.60434949278949   -0.55646669521702   -4.43432751844461
C          -2.56184141590908    0.42674054117350   -4.76570901779891
S          -4.01062423157846   -0.26030100559597   -5.36472957149108
C          -2.01611163550224    1.69838094237119   -4.51181366776775
C          -0.70090752543364    1.52827031850023   -4.02636270827780
C          -0.41370453801465    0.09368904625067   -3.96865545854901
C           0.75498611311177   -0.49083313138323   -3.54479576065002
C           1.87906832770610    0.26573465235387   -3.17237329807040
N           2.81268012781098    0.87419969724969   -2.89403669807317
C           0.90071929352367   -1.88820194871936   -3.46890608501824
N           1.00847084097872   -3.02922466029453   -3.38887206206663
C          -0.06558856625606    2.71570613682605   -3.72382640961819
C          -0.87150008265889    3.83420223623518   -3.97786116441682
S          -2.45593499951354    3.35184912355763   -4.59758050466795
C          -0.61003263971095    5.19714663422720   -3.83112560895066
C           0.54410459374587    5.80548834917548   -3.37272992216952
C           0.75245796101695    7.19675939986640   -3.25902237249342
C           1.98472511624953    7.55012527300374   -2.77383274428586
C           2.80642723413911    6.45294630365619   -2.47911416761259
S           1.97669118675765    4.95756847900165   -2.83870937292715
C           4.09945722415870    6.39764336653554   -1.96141574631492
C           4.99217092169000    7.40540250337927   -1.57209122766699
C           6.18330147738252    6.92541001521314   -1.08315519660992
C           6.28612886364546    5.52126044950423   -1.06153829921629
S           4.81435811095332    4.83033934860560   -1.70444260417337
C           7.33071106385473    4.76606265892978   -0.54043860016634
C           7.37646510953272    3.37798765728993   -0.49006040494591
C           6.50538978446077    2.45294405817155   -1.08881127625298
C           6.73530671046355    1.16701386825280   -0.69301390927423
C           7.81765890016291    1.02259409544393    0.20643635192332
S           8.56760005750876    2.54346193410105    0.52706134156470
C           7.89932211914581   -0.31741405669904    0.59335033016297
C           6.86259402225800   -1.03532978930645   -0.04792050212339
C           6.02131874748948   -0.13600332722415   -0.90580222195555
C           4.60167502368177   -0.04404561255599   -0.33509521739563
C           5.98104615486260   -0.56874890413887   -2.37034377017508
C           6.79598829657944   -2.35234905228495    0.30471792360248
C           7.77092325140504   -2.72245618449526    1.24537175347291
S           8.82229140105720   -1.34581851477517    1.62713590668828
C           7.93962742681799   -3.95237347818251    1.87002154987888
C           7.03266561392537   -5.00593656052275    1.83371976369252
C           7.20572782089625   -6.29390362244843    2.37422200907225
C           6.12734319459149   -7.13046488559650    2.21531207910246
C           5.04321932451450   -6.53008022842997    1.56096053299335
S           5.43035940866465   -4.88427276726843    1.14205565457548
C           3.78995120223971   -7.02912915114038    1.20791605901816
C           3.27096772494452   -8.32857147248033    1.29657161614901
C           1.99591221324680   -8.44377235397723    0.80701317074119
C           1.44018646745754   -7.23715970726442    0.33100169088758
S           2.60921225306226   -5.94840942360690    0.50752430093094
C           0.16600877616167   -7.08667273737828   -0.18606498532525
C          -0.47570267581292   -5.91080487870434   -0.57696465719858
C          -0.04712158294666   -4.57757284517124   -0.51964389205876
C          -1.02711740150012   -3.69085723667902   -0.91746374174082
C          -2.22950356670340   -4.31684111075499   -1.31371394539440
S          -2.13375251429843   -6.02268356980485   -1.18290119197998
C          -3.15637543879421   -3.31538981179028   -1.65751040859713
C          -2.55388689054664   -2.05193193674858   -1.47459976813657
C          -1.20834937427024   -2.24143717455794   -1.01631388148783
C          -0.27272613156211   -1.28168043707594   -0.71822544389558
C          -0.54539221566964    0.09210066834996   -0.84223975815869
N          -0.76436163165280    1.21425443486853   -0.95694040802847
C           1.01584597727093   -1.62317641213239   -0.27157135215246
N           2.06673829764063   -1.91009850749214    0.09087056179300
C          -3.43638732005223   -0.99205445198887   -1.77101554168931
C          -4.65151437095720   -1.44789318779596   -2.16999057605936
S          -4.77707539252812   -3.18434376832829   -2.19272406739458
H          -3.95236373930751   -2.69763047123742   -5.43245382541357
H          -1.51441085503830   -2.76101779019434   -4.49040679836961
H           0.93146767427290    2.78704721056750   -3.33285268731964
H          -1.41258591634321    5.86736907639518   -4.11362326141729
H          -0.01076361300652    7.90214800971856   -3.53752909424018
H           2.30838720420941    8.56462204000021   -2.62330483953819
H           4.74868188879333    8.45031093513200   -1.64693117224334
H           6.98340790807814    7.55292049864885   -0.73102770609825
H           8.14054277606221    5.31423251776454   -0.07765649930953
H           5.74684709541564    2.71547284367881   -1.79859704436782
H           4.62670383193793    0.30670899270372    0.69419701846122
H           4.12354304094063   -1.01870093204128   -0.35672282756624
H           4.01023677719216    0.64701384579484   -0.92948071727988
H           6.98375836256502   -0.59783619564818   -2.79145417578740
H           5.37357821653856    0.12971756697292   -2.93928205492026
H           5.53596981767015   -1.55712355280986   -2.44856084937463
H           6.08967331364798   -3.03737823680576   -0.11982391745326
H           8.83323972841352   -4.10088565679703    2.46155490293901
H           8.12213194747613   -6.58167481031810    2.85931437807627
H           6.09580346529863   -8.14652354099654    2.56645985334995
H           3.84100465346648   -9.14642741053796    1.69992360075770
H           1.43966732656197   -9.36445449874965    0.78404687570690
H          -0.41484516877314   -7.99660555149551   -0.27326337776771
H           0.93223320585919   -4.28999094013190   -0.18826529904870
H          -3.18617227790413    0.05079362385006   -1.69313335297285
H          -5.50915844054949   -0.87374470285200   -2.45881045963797
