130
 SCF done       -255.710817538759          0.000741532303
C          -4.90273785254563   -1.34589433007008    1.64673293231784
C          -5.32371838767870   -1.06229685273406    0.38265026845541
C          -4.87173065916905    0.20465617722305   -0.03333121958967
C          -4.11057652220163    0.84931163911083    0.94686040153829
S          -3.95141968214926   -0.08861975065407    2.36302037293367
C          -3.69667264006672    2.11924275492927    0.44448983170014
C          -4.20388596694787    2.26316784455913   -0.85579602802373
C          -4.95865090398933    1.06602470009563   -1.20036243884069
C          -5.60822904744589    0.80902891407910   -2.37199787682410
C          -5.62240646023475    1.72587664356136   -3.44423654174152
N          -5.63921047716701    2.46364364221758   -4.32203968446388
C          -6.31178911248074   -0.39375668574625   -2.59382962795779
N          -6.88602435355648   -1.36831382917837   -2.78110390812884
C          -3.85281238118219    3.48328527787022   -1.43883640330675
C          -3.08910904768263    4.24642975281208   -0.58080120778594
S          -2.79192321242260    3.47254426631480    0.95447836391271
C          -2.54919627582548    5.54330307420855   -0.81321193817772
O          -2.77501229934277    6.15849815071939   -2.01059943853395
C          -2.13973225381684    7.35020004395431   -1.90129964873059
C          -1.54282737151487    7.40191493225205   -0.60913090095575
N          -1.83948520945249    6.22659361022421    0.02985779309235
C          -0.81325127198383    8.49728195803181   -0.17831643474470
C          -0.71485591898707    9.52648382886475   -1.10086791336372
C          -1.32275683185964    9.44879131452078   -2.38811606575168
C          -2.05297947261920    8.36468844802361   -2.83342343593085
O          -1.04419159682665   10.59922318651021   -3.03892555254312
C          -0.29249693051770   11.32678083294574   -2.15227604922144
N          -0.08120916461061   10.73583066715853   -1.01628445360193
C           0.18972977490222   12.61961578575954   -2.51469752460443
C          -0.06079518860759   13.18986758879961   -3.70975575334557
C           0.40995622081443   14.47224272328680   -4.11186755543003
C           0.17439867996416   15.08413016400538   -5.31133075734107
C           0.77632416766085   16.35846252184395   -5.43586273043805
C           0.74397566680802   17.23198493362783   -6.54163192870758
C           0.09539693096935   16.89646024001453   -7.79299258568901
C          -0.60981323603593   17.72617683314715   -8.61707191932028
C          -1.03855814548629   17.08700728568013   -9.80030108359855
C          -0.66295905157626   15.77976742212401   -9.90620869070210
S           0.23491734624229   15.30935559688193   -8.50288244049256
C          -0.92635314092493   14.82000409319363  -11.00765495336291
Cl         -1.95707263643257   17.90760746550449  -11.00322372553931
C           1.40612208641241   18.44589849152315   -6.39062245093982
C           2.11854468069985   18.80592092731227   -5.21938399009996
C           2.16674978258584   17.92576991686871   -4.11952663198657
C           1.47341817073575   16.72648763197831   -4.25662940591276
S           1.39068355148328   15.46824930576206   -3.05600065957165
C           2.91441434132050   18.22486924755774   -2.91456586970367
C           2.57432093826727   17.93751373851721   -1.62351364139628
C           3.56309543554760   18.32954644638823   -0.69524602451461
C           4.66855606937846   18.90183185766428   -1.25358351658095
S           4.48863943773062   18.97536088718835   -2.97326721853709
C           5.88151010408706   19.43582941187539   -0.58385914604089
Cl          3.37544349356568   18.09572212361111    1.00014140881575
C           2.71793078270709   20.08151048357499   -5.34195749033462
C           2.51314580074408   20.67107459694260   -6.55612271834681
S           1.53313465442407   19.68185820136921   -7.61119145816785
C           3.02085664437812   21.93035394370312   -6.99409962625918
C           3.92746876122571   22.71557603421644   -6.34075862897275
C           4.26796628741927   23.89474739193312   -7.04198013872974
C           5.19053409510920   24.89305725643597   -6.66523512460203
C           5.99675772364515   24.78847805087836   -5.46543939449666
C           6.36220956555980   25.78520740874902   -4.60588330499680
C           7.19407569753546   25.32878895228272   -3.56116468774893
C           7.48496659764459   23.99628133178139   -3.61011335257092
S           6.71286771372035   23.27377543485565   -4.97780618609221
C           8.33164767882401   23.19645110316271   -2.68851120289486
Cl          7.78379029693066   26.37088411584779   -2.32448552698722
C           5.30458131222616   25.98417069422899   -7.52011928891922
C           4.57447023082205   26.10347505283504   -8.73115799489701
C           3.68894472124177   25.07981598887109   -9.13011609197129
C           3.54578095983343   24.00936557797239   -8.25655271561694
S           2.52004396882790   22.62569067244891   -8.51622220437052
C           2.98524611867699   25.14675834353132  -10.39445742683217
C           3.46838819641198   25.54565006249064  -11.60796888705254
C           2.49399401949801   25.48646428873639  -12.62784790732718
C           1.26826901839972   25.05273148202809  -12.21317392196857
S           1.30707240593591   24.69347174333152  -10.52029950964257
C           0.02527576185863   24.87541567465924  -13.00519285443514
Cl          2.84217033299132   25.93015954638590  -14.25640583049459
C           4.85664087041904   27.31562287264912   -9.39959806480801
C           5.79249399750873   28.09242153273478   -8.76978655001096
S           6.36031292522351   27.34904909380744   -7.28754778592245
C           6.30227631410039   29.35413438513310   -9.17701374594584
C           7.24209734501788   30.11233995408976   -8.52934281265970
C           7.47490927875729   31.30860249592206   -9.27914804129931
C           6.58837293511746   31.20306051176946  -10.44266256946193
C           5.89181082915621   30.05816954623716  -10.39650602368161
F           6.50956682753012   32.13640654002855  -11.39867019653837
C           8.33098708393934   32.33840811974468   -8.99284396000419
C           8.56819214403487   33.53748589144671   -9.74216152920583
C           9.50747559322600   34.29393593752558   -9.09767998963570
C           9.91520418268876   33.58594951643717   -7.87699223368462
C           9.21751486077466   32.44263691692792   -7.82859641776034
F           9.29238781944609   31.50747592293697   -6.87232577627954
C          10.00885005098580   35.56259718758666   -9.54008844627693
C          10.93367432351740   36.28902778746237   -8.90970647743939
H          -5.09455331478306   -2.23210088403991    2.21790316973315
H          -5.92386563635428   -1.72757954064377   -0.21062478855918
H          -4.12726594518129    3.81313975850947   -2.42419791968863
H          -0.35916090618396    8.54553373391421    0.79496235688314
H          -2.50828097681549    8.31422482898376   -3.80711162715543
H           0.77892307716303   13.11787757683934   -1.75970404746459
H          -0.65663578318141   12.65763473886055   -4.43975155981598
H          -0.42328540803059   14.62993094184540   -6.07990675831772
H          -0.85170757273646   18.74638354390251   -8.38471579337277
H          -1.54426535735981   15.29487578672705  -11.76560277927156
H          -1.43967081435427   13.93508988304529  -10.63346646090073
H           0.00801001395382   14.49645184899428  -11.46601163538409
H           1.64053966416348   17.49677814694398   -1.32871762443979
H           5.90334284314238   19.10458423239035    0.45137725638728
H           5.87963640328132   20.52634167859954   -0.59988082495058
H           6.78224757405709   19.09220075158438   -1.08942399926268
H           3.27265880648868   20.55575338694560   -4.55568657182428
H           4.33785355245108   22.45060030977742   -5.38562262682102
H           6.02734898818452   26.80253301481339   -4.68341673234563
H           9.37117884283026   23.20572014045040   -3.01920681785837
H           7.99336180489411   22.16331822872734   -2.65965234495661
H           8.29131532493576   23.62118407581256   -1.68751154131733
H           4.48996500793070   25.82573865696481  -11.78744324268958
H          -0.77345057404080   25.50359148540001  -12.61193866399324
H          -0.31115132818602   23.84010327848592  -12.96165414788998
H           0.20870667490766   25.14492710072260  -14.04229694310757
H           4.36424068968796   27.61389568830413  -10.30578855451129
H           7.72960269551915   29.85639850409540   -7.60910468001886
H           5.16908497344084   29.70908655831245  -11.10680176593244
H           8.07883498185753   33.78739154383891  -10.66297056515652
H          10.63746274883772   33.93086369184352   -7.16420759229427
H           9.57866531062625   35.92664152281352  -10.46474659484790
H          11.38882090999872   35.96587690305078   -7.98950534569809
H          11.26610182476818   37.23564838544863   -9.29913253806935
