83
 SCF done       -188.989981042795          0.000813935950
C           3.44866390876757   -2.33888567902345   -1.47802975221369
C           2.72256692154753   -2.19186823339820   -0.33470693977265
C           2.31496393687773   -0.85640943862606   -0.15672267016322
C           2.75460340678272   -0.02139586418859   -1.19050427803948
S           3.65742208313104   -0.86731414043591   -2.36624791561733
C           2.29886624714986    1.30411031325696   -0.93279741938165
C           1.57112275221831    1.29326444573908    0.26771990491396
C           1.55749211397345   -0.06361621566007    0.79609626392640
C           0.95820091875924   -0.49288841512783    1.94395119326789
C           0.24407080939944    0.37852443241507    2.79345968520733
N          -0.33915614363321    1.07643460400692    3.49172289970744
C           1.01130939124419   -1.83989558005910    2.35982668073802
N           1.05226917925725   -2.93351885252849    2.70215986764781
C           1.07606342939841    2.54907489641216    0.61155243056024
C           1.42122637765320    3.51554809320591   -0.31628346578456
S           2.37648143351718    2.84941503841006   -1.63525755044183
C           1.07314211331565    4.90501012927692   -0.27178687151154
C           1.46002660963715    5.82319943691917   -1.23778340955633
F           2.19777613109449    5.41452783097399   -2.28717243641145
C           1.11114339815738    7.18378249376831   -1.20560303007650
F           1.50973279038145    7.94450108282843   -2.23394887687883
C           0.34169751878596    7.73271945190843   -0.20219203658575
C          -0.07111020973600    6.84282045689207    0.81434871401027
C           0.28620826771643    5.44891161153679    0.78527952814497
N          -0.19917543174586    4.80207415729619    1.84222087785316
S          -1.00347264329410    5.83287263319860    2.77260642534582
N          -0.78191674215988    7.15620132483521    1.89582152211151
C          -0.06043225947848    9.13630601933855   -0.18306372077735
C           0.82921189909373   10.18004024526590   -0.32110486009146
F           2.13962480106780    9.93110380955866   -0.44110552916102
C           0.42906954779440   11.52714599230237   -0.29667933267272
F           1.40018785081046   12.44824414183485   -0.43124815081874
C          -0.88722039080208   11.93718932294175   -0.13944309366360
C          -1.82843555300490   10.87798947226049    0.01250489544705
C          -1.41504126170790    9.49964514917575   -0.01120047402537
N          -2.44576455661573    8.66550152379943    0.11192625485398
S          -3.79059356978297    9.52068904252465    0.27224413828144
N          -3.14520227925548   10.98688847899150    0.17351803358163
C          -1.29183220576605   13.31327744550287   -0.14439161609972
C          -2.58893895479404   13.78748117652623   -0.04659347888101
C          -2.64436674302250   15.17662402630854   -0.11728618587164
C          -1.37447442412374   15.76552050503206   -0.26231932791951
S          -0.12246006846717   14.61287070114170   -0.31405978984312
C          -1.53806886271378   17.17077350032984   -0.34393747084450
C          -2.91539086070147   17.46962237740573   -0.26199989696187
C          -3.65126665301772   16.22611779065822   -0.09306792155936
C          -4.99529135914441   16.07098109369760    0.07373034400657
C          -5.89135946433398   17.16078026717583    0.13437870969995
N          -6.63679945702883   18.02793502166989    0.21288203530559
C          -5.58902763757447   14.79892881230580    0.22422249642240
N          -6.08142761003541   13.77086712099501    0.34628860984717
C          -3.18775495150497   18.82650958073084   -0.38519386047812
C          -2.03243652052854   19.57712037562486   -0.55414936258411
S          -0.58351456470167   18.56354940602354   -0.52720830900233
C          -1.82495860394851   20.96659895104305   -0.69100906505564
C          -2.70584191641102   21.94063039579382   -1.06538740003955
C          -2.39383390227905   23.36010457021016   -1.09417993409589
C          -1.36415877440246   23.97801932612774   -0.43295375902587
C          -1.11847828028922   25.36642628288694   -0.47677843872132
N          -0.86218113893080   26.48546000626116   -0.47997860630950
C          -0.43849783007738   23.33035057382856    0.41215957748410
N           0.33449030579895   22.87621432116624    1.13005293443981
C          -3.42489480770606   24.02754819481421   -1.87525149645179
C          -4.40397212259561   23.07070375735648   -2.24204707058887
C          -4.02434347854098   21.74549078533508   -1.72291656501936
O          -4.64399367586638   20.71433937264649   -1.87188941657893
C          -5.51424780903448   23.39438224509325   -2.98428982095347
C          -5.66407531501798   24.72450262060043   -3.38736793076975
C          -4.67760358266215   25.67262758937536   -3.02182648516471
C          -3.55650680918294   25.34620011531433   -2.26815321432991
S          -5.06270965752363   27.24868688309868   -3.63700107937843
C          -6.51061769510513   26.63931050689375   -4.36056368592573
C          -6.70435768312944   25.31802541301733   -4.15618645748466
H           3.88536132778317   -3.23726559293669   -1.86618841129917
H           2.49632176211448   -2.99943577935086    0.33713885918824
H           0.49292744005230    2.77702522102484    1.48417196877839
H          -3.43041165770298   13.12912344795245    0.06350485007401
H          -4.16844788128045   19.26305820761323   -0.35903452319540
H          -0.80249682292995   21.27523050914712   -0.50422275622421
H          -6.24315229035116   22.64250295466776   -3.24402041548552
H          -2.83037581971771   26.10225161213800   -2.02008009730405
H          -7.13699765851010   27.31986763914663   -4.90386458869550
H          -7.54841808132876   24.76783745662841   -4.53074944892942
