113
 SCF done       -229.801499131326          0.000948992161
C          -1.87360353783202    2.50644710444637    4.50860657789539
C          -0.64991670934505    2.95895306155448    4.91531428600138
F          -0.46511552307269    4.26047706977918    5.17357021482990
C           0.43080216746645    2.06724736291427    5.06826577494340
F           1.61941077495648    2.53989906166711    5.46745863968037
C           0.27241815601660    0.73413827505047    4.81247729311864
C          -0.97639317241928    0.23727113988737    4.39171190045404
C          -2.07044335621751    1.13736115377953    4.23705953773557
C          -3.33454753005831    0.66122200467971    3.81947727605649
C          -3.49979643640936   -0.67527700217578    3.56546262932044
C          -2.40042700826479   -1.56274872512141    3.71663587294029
C          -1.16812791560631   -1.13478591603166    4.11766457361659
C          -2.82047558613650   -2.93554433615035    3.37632479270018
O          -2.10297662437857   -3.91326253348805    3.38253242537243
C          -4.24495433180502   -2.83318562942032    2.98194764595559
C          -4.66297059228485   -1.45130542319314    3.14396103535343
C          -5.93215893567838   -0.94941675525268    3.00757764391280
C          -7.08998680079150   -1.69383108921210    2.69808745350769
N          -8.08338700363987   -2.22432285049517    2.47117342645151
C          -6.26675166700042    0.40856107590303    3.19508197458834
N          -6.60622601521997    1.49775178813034    3.32253566188547
C          -5.03462206190556   -3.81007099152117    2.43199492957196
C          -4.82673702007556   -5.19445412414389    2.30359895407981
C          -3.87557895538411   -6.05578278300784    2.84020294225181
C          -4.10174228731123   -7.37532835093964    2.48251932054389
C          -5.23653782047521   -7.54416014041569    1.65393323119025
S          -6.02761874273351   -6.07597450609766    1.33939095137734
C          -5.36223769014514   -8.91954411847465    1.34128074823426
C          -4.31850724704678   -9.61850202411828    1.96843047594270
C          -3.49783978187137   -8.67716641126303    2.71371414040487
C          -2.41108462735305   -8.97106256712229    3.48311910997625
C          -1.93725351697159  -10.29364525632100    3.61563728755359
N          -1.56224801489534  -11.37187659359208    3.72751917569265
C          -1.69534969240013   -8.00097367138003    4.21841029083405
N          -1.10558864189276   -7.24367857719959    4.84457836417580
C          -4.36210531193713  -10.99134194320346    1.72438326771132
C          -5.42474692261738  -11.35015832095555    0.91866466675046
S          -6.38590704716106   -9.95963814087838    0.45081695975773
C          -5.77991617971863  -12.67502165913287    0.47196328535906
C          -5.15542858849434  -13.78854924387273    1.03842292729048
C          -5.51018323369249  -15.04355302442488    0.58137581938156
C          -6.47714078502923  -15.21667672384252   -0.44285243866794
C          -7.09909630963939  -14.09957394521083   -0.99312822625789
C          -6.75051977803859  -12.85158109104039   -0.53299809182323
C          -6.56963884052907  -16.62382863570582   -0.67076529919494
C          -5.65707541320638  -17.23608252435866    0.22994364289270
N          -5.04076734987355  -16.26881777050168    0.98171098473698
C          -4.04999755442023  -16.47017131845531    2.00165469485531
C          -5.48805083412113  -18.60785093486470    0.24783050504326
C          -6.22901763871623  -19.38929834158605   -0.63864659556953
C          -7.14096670296965  -18.77869069896526   -1.52226700670830
C          -7.31394895434740  -17.41464785397086   -1.54118380209300
C          -6.04259068205526  -20.82041086896272   -0.65049162201378
C          -6.42783321298271  -21.72954069223778   -1.61395304785757
C          -6.03849738304466  -23.03471044394260   -1.29912696743160
C          -5.35853230720442  -23.11977628711902   -0.07426427880400
S          -5.19574263785420  -21.59770237089715    0.67760494389595
C          -4.98933016008906  -24.46871100534361    0.15257371151008
C          -5.43399944549333  -25.23878224203109   -0.94213196261861
C          -6.11626950694297  -24.36439763810622   -1.88246119406686
C          -6.71441506056620  -24.73197242152387   -3.05179588346379
C          -6.71593280066149  -26.07487670962785   -3.48484271609746
N          -6.69790982243910  -27.16832233520307   -3.82953675062749
C          -7.35673248261909  -23.79889538618916   -3.89213238766742
N          -7.87063497661528  -23.03393152542509   -4.57427655102191
C          -5.12715105216132  -26.58566521810551   -0.81618231680324
C          -4.45528165519702  -26.86481186744894    0.36769953318144
S          -4.18401570959487  -25.40495997905622    1.31900742806674
C          -3.93550934750301  -28.08410782076439    0.84168778451918
C          -4.18870037070527  -29.36028538104226    0.42924437131304
C          -3.19552129637774  -30.41637108696088    0.77138758929154
O          -2.28443438519732  -30.32079159427378    1.56105585962011
C          -3.53120109224558  -31.56205845265976   -0.09612610521559
C          -2.85798606520421  -32.73736163480596   -0.26420489617013
C          -3.35228345213042  -33.68465902361562   -1.18867953414114
C          -4.53395299777056  -33.38912720819324   -1.92877471713684
C          -5.01549779414826  -34.33464387113560   -2.85627266877360
C          -4.35789279804024  -35.51904214369254   -3.03691249948060
C          -3.19066986521667  -35.81094019176927   -2.30291295546945
C          -2.69696716338695  -34.91367857793046   -1.39793969317916
F          -2.56582826779629  -36.97955081175105   -2.50136558262408
F          -4.81805156991347  -36.41760144068423   -3.91709099169179
C          -5.21384953086418  -32.16559390599826   -1.72778363365052
C          -4.72385850070537  -31.26925088449453   -0.81664477119032
C          -5.22110644426665  -29.96433048649475   -0.38236453674824
C          -6.51940039417468  -29.54239599951396   -0.51502495210981
C          -7.03849894176513  -28.39772983066129    0.11868542291544
N          -7.50022228684657  -27.48308216173944    0.63732176921536
C          -7.50975416764086  -30.26015788816047   -1.21792649097984
N          -8.35110032591131  -30.80702897399660   -1.77420008498600
H          -2.69021749941435    3.20274242196550    4.39812109474221
H           1.10859367730301    0.06356543936987    4.93423805088235
H          -4.13874969894257    1.37012529881279    3.70860588481769
H          -0.35421201313130   -1.83540591733315    4.22589548383852
H          -5.97962220095653   -3.48134811790626    2.01517526284129
H          -3.06197774650988   -5.70996424512797    3.45131910855521
H          -3.64108779029052  -11.68980534158273    2.10493322562465
H          -4.42084114836066  -13.67342183106804    1.81790210670068
H          -7.83977680117841  -14.21241403714934   -1.76934010129127
H          -7.22120613325925  -11.97619390878525   -0.95619873797416
H          -4.02933093900368  -17.51843322130105    2.28939050341572
H          -4.29470243437699  -15.87339137413622    2.88190195568720
H          -3.05688857533679  -16.18094507118768    1.64623898055964
H          -4.78409396349665  -19.07988615138803    0.91712629255408
H          -7.72193446557246  -19.39592971672288   -2.18792109593190
H          -8.01626369292586  -16.96117757416544   -2.22317397513297
H          -6.94588251422446  -21.45634741236594   -2.51439374128472
H          -5.32895505379666  -27.33018104644887   -1.56425775236749
H          -3.16021880652123  -28.00568420954042    1.59872265596975
H          -1.95994381033805  -32.94130052490019    0.29875108842404
H          -5.90940886488355  -34.12843092873913   -3.42386939301274
H          -1.80215712280314  -35.15155310615425   -0.84434059490438
H          -6.09923525693620  -31.96252961297306   -2.30878677576628
