108
 SCF done       -229.822765434580          0.000487622413
C           2.20437519533433    1.57364469870143    0.50497702279113
C           2.42466142348795    2.31268276312177    1.63316513309635
F           3.18469960033776    3.41316229731803    1.57893461383020
C           1.85716263162535    1.92825309750912    2.86542844659949
F           2.09124802077354    2.67187334435846    3.95368304547768
C           1.07698109917773    0.80934045873389    2.95216575641402
C           0.83148694274291    0.02662708790070    1.80715614740272
C           1.40365144674573    0.41485083532358    0.56048168205519
C           1.16792593642200   -0.35167798008894   -0.60319328838670
C           0.38310109389415   -1.47261607646680   -0.52309470472605
C          -0.17553795654137   -1.85653763195696    0.72655029466937
C           0.03247649481903   -1.13620140683400    1.86779713891005
C          -0.95972325871878   -3.09408522738174    0.56145334416691
O          -1.56478187388365   -3.67318528876533    1.43621359232787
C          -0.80774137157726   -3.47726623266710   -0.86637559530127
C          -0.04091763636237   -2.43488559578597   -1.53439807406691
C           0.18731762072295   -2.31309067899068   -2.87986328321393
C          -0.29841176965480   -3.17591432586063   -3.88621895118574
N          -0.66644995866768   -3.81563171366933   -4.76615864701632
C           0.92595042577225   -1.25942820787258   -3.46163914650881
N           1.51713321380797   -0.43549636074575   -3.99865652059766
C          -1.19122473503707   -4.64039778181530   -1.47288688681760
C          -1.98407561369147   -5.71537939034887   -1.01795807646050
C          -2.76198135394359   -5.90459788058888    0.11898821759790
C          -3.42571685635471   -7.12359988950822    0.09884792268103
C          -3.15217089122719   -7.88642718191995   -1.06146820811246
S          -2.09232436184578   -7.09261927735281   -2.12298009646567
C          -3.87264433490831   -9.10328335883609   -0.99085528401607
C          -4.61510550294036   -9.10048128130333    0.21052774177341
C          -4.35407262293045   -7.86807548618453    0.93635568294347
C          -4.87428541983004   -7.51734696416790    2.14716165061805
C          -5.76512060035808   -8.37062181319594    2.83448909555175
N          -6.49078688925337   -9.07599380491388    3.37416025156904
C          -4.58682420780608   -6.29293105500996    2.79006374338536
N          -4.38475249083121   -5.29986775691892    3.32419891784567
C          -5.37542120391234  -10.24963761708643    0.37344926369768
C          -5.20213482229738  -11.13873356749575   -0.67819653931942
S          -4.11521679223040  -10.51817786071659   -1.91058492183688
C          -5.80427437915403  -12.39938508957836   -0.90163069813938
N          -5.78769071845423  -12.93257277581080   -2.11504104184490
C          -6.51494686597975  -14.06316236890080   -2.03299308311631
C          -7.03486740010475  -14.26275911692349   -0.67292034627335
C          -7.82568491298219  -15.50180475767259   -0.59742650197672
O          -8.42176160134137  -15.95778552498222    0.35501614814951
C          -7.71909055476142  -16.03336358973360   -1.96794244208231
C          -6.91803703396878  -15.12097470921815   -2.81250052108896
N          -6.79705936092885  -15.61389174618550   -4.06799708831586
C          -7.44898557635527  -16.75126633527352   -4.05402453346394
C          -8.04120868169611  -17.07887126816743   -2.77193419759038
C          -6.54542192602232  -13.22656076640521    0.08350542274182
C          -6.61958173651331  -12.98264259064653    1.48098463892231
C          -7.49620906967897  -13.59611146161505    2.31343622365163
C          -7.57538674355289  -13.31050886194205    3.70065562168415
C          -6.83577392594029  -12.40176808401680    4.44744029593846
C          -7.21515077454721  -12.39224457651538    5.78344670474758
C          -8.26310728049670  -13.29303345854172    6.06449953103557
S          -8.76348925829777  -14.15300347451725    4.67990829252114
C          -8.58296531225444  -13.19348015831895    7.43983926911641
C          -7.73075586398263  -12.23419076221241    8.02946511937173
C          -6.84845897455830  -11.69810991552756    7.00691814426156
C          -5.89154274287822  -10.73932435556628    7.16819957821641
C          -5.66464201329037  -10.13917205124807    8.42543036419181
N          -5.48927484000980   -9.67047570947654    9.45706283271480
C          -5.05887891960306  -10.30854286328890    6.11449672651676
N          -4.35992111555571   -9.97504075092573    5.26848072132525
C          -7.97909768539715  -12.04936572105563    9.38188830414582
C          -9.02018665631355  -12.84730308863913    9.84000133777425
S          -9.66939900708253  -13.86852299971749    8.55876516053287
C          -9.55356776939372  -12.97430724203020   11.13809576018740
C          -9.41293808412165  -12.16127758567772   12.22398277315383
C          -9.71232127897441  -12.73133060969599   13.56885477229083
O         -10.27672511863064  -13.77553008788074   13.79838176596684
C          -9.12524395046179  -11.78185801402224   14.53342914468044
C          -9.01626477764920  -11.89363547625520   15.88949730567752
C          -8.37174724067029  -10.86525475381175   16.61274269380871
C          -7.84314766547410   -9.74239386588496   15.91166511798638
C          -7.18986455696929   -8.72687414124555   16.63842614611598
C          -7.07143007432997   -8.81931785053486   17.99684544593503
C          -7.59771946969685   -9.92849709450786   18.68932723976634
C          -8.23447274360134  -10.93094752931547   18.01300618938786
F          -7.46660748258353   -9.99283276464022   20.02104254774618
F          -6.45135868217398   -7.85310714145077   18.68618219133886
C          -7.97957766056943   -9.64988381224780   14.50728315294530
C          -8.62128628112080  -10.65130021243255   13.82955728303669
C          -8.93671228715317  -10.80819514404288   12.41030025369906
C          -9.01092856452034   -9.77585337840466   11.51112621742155
C          -9.55369720408017   -9.90191511012838   10.21818821330296
N         -10.01129064918862   -9.96478122087515    9.16702677124283
C          -8.64674553117107   -8.44630509659553   11.81228784151585
N          -8.36936559146630   -7.35081694386990   12.00988522951785
H           2.64474688549671    1.88286851697667   -0.43010089003885
H           0.64989794776023    0.52837306424394    3.90205239368730
H           1.61957450181088   -0.03274941821996   -1.52831506659224
H          -0.40827378167706   -1.45108531383168    2.80138712314424
H          -0.82905738399411   -4.78970420903889   -2.48368351209888
H          -2.81829292366129   -5.17665210544942    0.90885507851900
H          -6.06082779897078  -10.40793642544559    1.18372231314321
H          -7.51213219816340  -17.35169281642516   -4.94482080751448
H          -8.60549210602930  -17.96371239987572   -2.55327819050739
H          -5.91183209885515  -12.27838201294941    1.88965554843501
H          -8.18774670718208  -14.32862044652225    1.91895166434919
H          -6.07283532693983  -11.76817328388044    4.03530980096682
H          -7.40750962804316  -11.40543615301967   10.02485843689628
H         -10.10715587714584  -13.88832686796848   11.33437359094760
H          -9.41443861800928  -12.75529551109263   16.40327274705132
H          -6.78468866141206   -7.86932422709451   16.12442154704798
H          -8.63126679117773  -11.77361734703035   18.55724459197117
H          -7.56219445892696   -8.79444492394696   14.00060910835372
