106
 SCF done       -218.562670999006          0.000755286784
C          -6.17120361820252    0.58873230702490    7.37128588712590
C          -5.56415443341851    0.86382656581904    8.56434395171488
F          -5.68141073022632    2.07883030180850    9.11478822506878
C          -4.80960449710947   -0.12331390509355    9.23026590199615
F          -4.22691365353462    0.17486594615296   10.39874705016379
C          -4.67302545623443   -1.37274787953689    8.69349553583669
C          -5.28838361845621   -1.68775578061239    7.46637379161520
C          -6.05014972286949   -0.69010699107539    6.79103579678112
C          -6.67532824210424   -0.98231295808866    5.55741529407992
C          -6.54530682730235   -2.23535948109329    5.01802992825681
C          -5.79168560920146   -3.22676703545559    5.70395506074861
C          -5.17214757719058   -2.97362066037545    6.89375423747567
C          -5.82112398303954   -4.49006049302271    4.94169949182098
O          -5.28104966840289   -5.52627651523200    5.26283329616216
C          -6.69248501517684   -4.22641968746053    3.76960651190028
C          -7.06231402302584   -2.82074695802521    3.78573089808822
C          -7.70866016505245   -2.13310596503508    2.79224647433194
C          -8.11299646885068   -2.67368965818128    1.55279142302533
N          -8.45167452870710   -3.03482364722479    0.51652213023173
C          -8.02549090061591   -0.75976478783622    2.86340471582150
N          -8.31747219673403    0.35010708931890    2.86585937802675
C          -7.23073318602576   -5.14717383998606    2.91322633554465
C          -6.93188598252726   -6.51358664329373    2.74070475477326
C          -5.85136188164388   -7.29274677502391    3.13435714925558
C          -5.97988473043629   -8.61133675543207    2.71854316227515
C          -7.17075280205940   -8.85447358914682    2.00024421784831
S          -8.10726507993171   -7.45361339802671    1.80776037300864
C          -7.22561546643385  -10.23624740586518    1.67409189979183
C          -6.07507682254287  -10.85615400603219    2.17823366142546
C          -5.23874993129891   -9.85901097575960    2.82411547747318
C          -4.00627813701219  -10.06529154202950    3.37013419158614
C          -3.41729575145952  -11.34794714324038    3.35642583011682
N          -2.96021579112311  -12.39925581728142    3.32195730261269
C          -3.22911130673321   -9.03312236057226    3.93890273272516
N          -2.57135757370731   -8.20905494092940    4.38704797325503
C          -6.05913004558655  -12.23479804569391    1.93482589200624
C          -7.17955141296406  -12.64606685099557    1.26021288916795
S          -8.27031772884929  -11.34073453990508    0.89477512570057
C          -7.48183764387815  -14.06080665708631    0.87178671864625
C          -8.87177802209590  -14.21849431511633    0.25414163015724
N          -6.51340408878947  -14.40886121079837   -0.18980628147613
N          -5.62549912463850  -15.21550854859079   -0.11166847533651
C          -5.26093092217018  -16.03315377933034    1.04449131474274
C          -6.22074645089423  -15.84980681529035    2.16152591136044
C          -7.30305082867806  -14.92702931037330    2.06417504434204
N          -8.01865137534572  -15.03575452492675    3.14530128119476
O          -7.43431568108850  -15.97886192386379    3.89217678191228
N          -6.34270646147936  -16.48419018836819    3.29180797311556
C          -3.83206046180453  -15.63400969172241    1.42929485344042
C          -5.34017965148635  -17.52822790667217    0.58542818093187
C          -4.67519655554570  -17.75310438249887   -0.77744078210057
N          -4.55784602239195  -18.31420945975235    1.53924520008480
N          -4.93904688495970  -19.26483574175865    2.17560538373746
C          -6.27455967328809  -19.83803551160871    2.20146301591017
C          -7.21569975322825  -19.04708082215264    1.36158563495629
C          -6.76350499961210  -17.94695806162447    0.57588162063852
N          -7.80175389328116  -17.42495545677911   -0.01164315219065
O          -8.85988995848765  -18.16502757401449    0.36791660223814
N          -8.50326402670831  -19.14635659164446    1.20207361187251
C          -6.73548052881121  -19.84747076990343    3.67080921597730
C          -6.27316537074452  -21.23822205379067    1.65291721822815
C          -5.27746503460559  -21.94220929164572    1.10297321795343
C          -5.61565119740738  -23.09976384200707    0.20429355777370
O          -6.64594591551232  -23.72255601732603    0.18731703764227
C          -4.45014955481358  -23.22611408886227   -0.69064275228494
C          -4.30196631242822  -24.02744824638139   -1.78770970359108
C          -3.09866896202057  -23.96845653907849   -2.52364091296600
C          -2.06893280660385  -23.07137409647182   -2.11250229343566
C          -0.87288983170530  -23.01484535146275   -2.85663567478754
C          -0.70577889049109  -23.81259832122653   -3.95338698301453
C          -1.72417997189592  -24.70075990346400   -4.35790754621724
C          -2.89575671824255  -24.77800248113493   -3.65897177562127
F          -1.53223595176553  -25.46866733907384   -5.43698001157485
F           0.43006215335155  -23.75811915532561   -4.65802594745531
C          -2.24564600374085  -22.25993177372991   -0.96937735518633
C          -3.41621765930576  -22.34248323239714   -0.26258407533269
C          -3.84461713440294  -21.69513804584504    0.97241047119179
C          -3.02698217839690  -21.20292248994371    1.94510396982511
C          -3.46195932259763  -20.97231927535802    3.27213526931870
N          -3.73517565486205  -20.92781853532989    4.38493659783525
C          -1.63974053366686  -21.01628306955926    1.76528840399353
N          -0.51481005961189  -20.83362823717580    1.63680410735145
H          -6.74352333258104    1.35635680434962    6.87426670903675
H          -4.09253390428015   -2.11747132709173    9.21508396645889
H          -7.24836764960502   -0.20754446049374    5.07451314334461
H          -4.60319588657676   -3.74513512366911    7.38979001730378
H          -8.04185638578771   -4.80248955992248    2.28170683381122
H          -5.02880967731170   -6.90212913159790    3.70442620914125
H          -5.27388843216164  -12.89885364172804    2.24684970391960
H          -8.94829666430101  -13.58879765262827   -0.62817082817278
H          -9.62840724675757  -13.93720925229211    0.98239275448476
H          -9.02571942773670  -15.25307957968111   -0.04356887656657
H          -3.81962345470909  -14.63865625672343    1.86808365674477
H          -3.20808781581920  -15.62553925113057    0.54104719916561
H          -3.43805921626733  -16.34418324678742    2.15037255665295
H          -5.09111146116693  -17.06227848667183   -1.50495136107137
H          -4.85100780189627  -18.77689510118577   -1.10568221904859
H          -3.60506014115769  -17.59414963719243   -0.68743139234516
H          -6.75968893783718  -18.82833448920788    4.04972045277652
H          -6.03247901198979  -20.42296861154267    4.26570585525392
H          -7.72879733822361  -20.28323152651444    3.73141497938518
H          -7.26762197639068  -21.66730699030915    1.59357500826036
H          -5.09320784143299  -24.69757987637734   -2.08748370050474
H          -0.08159851462475  -22.34506082044339   -2.55838599636834
H          -3.66487054892406  -25.46270219407578   -3.98036110041974
H          -1.45452684423823  -21.58669513146739   -0.67958362464817
