81
 SCF done       -172.527315411538          0.000989594764
C           4.76325932204563   -1.32310895141147    1.03357542727606
C           4.99895228354841   -0.54961301254913    2.12950036817478
C           4.29645588897176    0.66852184266338    2.05646823931349
C           3.53889351521505    0.77847083503501    0.88467888438042
S           3.68714669732268   -0.59744551903922   -0.11387748843070
C           2.86517456804267    2.03386256499015    0.89479553877838
C           3.20086117160305    2.70824997910078    2.07623668129513
C           4.11614143401795    1.87351424886946    2.84551004697796
C           4.68617729797919    2.17388393964139    4.04780698267890
C           4.43436658825922    3.39209029267107    4.71332432847687
N           4.23185163840348    4.38286685894431    5.25389435319534
C           5.56956636931253    1.29016098061052    4.70295029479477
N           6.28957087536050    0.57568109390015    5.23783799266563
C           2.58729219850788    3.95777038819251    2.18269480809773
C           1.79191769577673    4.23606575487903    1.08783019476596
S           1.80019570517487    2.93139462530039   -0.09071533958958
C           1.02383016201395    5.40502547627284    0.84667748590562
C           0.26850750087222    5.69897801357028   -0.27333983949575
C          -0.35064226237104    6.94499602664628   -0.17017189321259
C          -0.06656037568349    7.59982925153607    1.03799381989726
S           0.96559749190153    6.68615258496777    2.04719830317799
C          -0.73792702285802    8.85129053837694    1.04781828128210
C          -1.44444094220713    8.98413893038208   -0.16455141717061
C          -1.22559463043765    7.79372639350484   -0.96726909756577
C          -1.72668923578478    7.52170135764674   -2.20610936611559
C          -2.56721203620136    8.42073239975029   -2.89677034475558
N          -3.25077918285009    9.14200628877739   -3.46847538391221
C          -1.43664567605283    6.31889363350600   -2.88417167866210
N          -1.20554053564734    5.34076107864471   -3.43645221438713
C          -2.13836382640571   10.19049195729297   -0.25073461393391
C          -1.95957194920095   10.95505715639698    0.88420245804101
S          -0.92973441779230   10.19713363125344    2.07610163089412
C          -2.51225942386175   12.24159586831399    1.16613251768467
N          -3.28488579077431   12.82875626920304    0.22954564954672
C          -3.76724976710375   13.99969204798277    0.54500606645311
C          -3.48667456825211   14.59398087810013    1.79597825630103
N          -2.70087739497879   13.93871360120766    2.66456326261542
N          -2.22539999548832   12.78660999111180    2.35068275069874
C          -3.99987385466184   15.86766809177955    2.19557786544514
C          -3.80353680068276   16.48924634994907    3.41195685788256
C          -4.45292725764560   17.72282415145164    3.47488064103389
C          -5.14325582952739   18.03466561849193    2.28981659685381
S          -4.99940134100605   16.81780251385923    1.10667217967268
C          -5.76781559161602   19.29855205616667    2.44576969235748
C          -5.47688264771026   19.78532404099763    3.72917032603966
C          -4.64208883619432   18.81169739763715    4.41988790997802
C          -4.14940454767972   18.90690464486657    5.68750310557945
C          -4.41560687700123   20.02241713491804    6.50974243302249
N          -4.63333623381955   20.92796494816975    7.17877270638912
C          -3.34348366302146   17.90304147621979    6.26681187974939
N          -2.68850301461978   17.09744949287980    6.75222225715367
C          -6.04902266651160   21.03370476877453    3.97835826305147
C          -6.76929841204542   21.49691135461859    2.89318762956464
S          -6.74280660129938   20.37302990699005    1.54359375212441
C          -7.47710038789441   22.72178441220053    2.77943278256756
C          -8.17920293174247   23.18956011331834    1.68508724381450
C          -8.74655268293559   24.44157571520675    1.92717169824894
C          -8.47405159252304   24.92511008172044    3.21368564193982
S          -7.52052310321017   23.84618849284191    4.12959894882299
C          -9.09293221560595   26.20055974473403    3.35632786123091
C          -9.75038990863205   26.51436971576207    2.16097248905903
C          -9.55814136309622   25.42570358280760    1.22081055777088
C         -10.02981905051572   25.33473178114281   -0.05584145224582
C         -10.80889791676116   26.35308895810931   -0.64442539465584
N         -11.44159202699960   27.17789138987216   -1.12820630779091
C          -9.76846909485890   24.21468087719923   -0.87272881494340
N          -9.55758400406296   23.30428155915743   -1.53731236816525
C         -10.39195549478644   27.76659233305952    2.21349186548622
C         -10.21139134223650   28.36443203898039    3.42373542672741
S          -9.26130488668741   27.42839482527545    4.52936581267496
H           5.16008901563025   -2.29505727688857    0.81867514744995
H           5.64036639111807   -0.84226624870090    2.94044817670266
H           2.70514320691052    4.63984287623044    3.00556833403108
H           0.18554536030033    5.03153661631483   -1.11225319207665
H          -2.74523930867596   10.51839358746180   -1.07464600284457
H          -4.38988448006867   14.49158687954325   -0.19260863091310
H          -3.21375890681776   16.03880832138337    4.18913646548840
H          -5.95446670468111   21.58860811368708    4.89443460230630
H          -8.26302566363756   22.63703754379333    0.76642316557010
H         -10.95400051006590   28.20403665518172    1.40882204081893
H         -10.58249559271517   29.31621406684535    3.74728386111363
