94
 SCF done       -192.073010750996          0.000749506797
C          -1.05418394995157   -2.94812968340276    0.09805776894572
C          -0.74162817302540   -2.38686417534856    1.29838453860157
C          -0.82310328721773   -0.98194000733530    1.24359985887303
C          -1.20259512401967   -0.51800616544107   -0.02181805504437
S          -1.45585580399599   -1.79153453888948   -1.12901319253643
C          -1.26211987994504    0.90446865831238    0.01418119804601
C          -0.91672971947426    1.33021906932958    1.30323346484634
C          -0.63251260694044    0.15660599971612    2.12150467937746
C          -0.27411871115494    0.14335622836167    3.43798300509347
C          -0.12864463402816    1.32954713039860    4.18702396049345
N          -0.01308764289978    2.29312232457023    4.79810373937524
C          -0.03071196076031   -1.05596906383067    4.13936734925429
N           0.16598581146079   -2.02786492893481    4.71508899621864
C          -0.94979053950973    2.71811625653290    1.44577984867056
C          -1.32304140164837    3.34788058005905    0.27344045882985
S          -1.63207725708498    2.20649398516604   -1.02691746552288
C          -1.48589658354332    4.73949204365290    0.05291171625817
C          -1.92304733656090    5.36786844700047   -1.09694361024394
C          -1.99227763491054    6.75328476059837   -0.94192908223713
C          -1.59626626004934    7.18092252235620    0.33802321055408
S          -1.14106245374533    5.87968204146843    1.34814118125286
C          -1.72659835137090    8.58828848209208    0.40418384677324
C          -2.21110236360239    9.05350305606857   -0.82994940889014
C          -2.38472140372232    7.91406547644861   -1.72022304615293
C          -2.82761020564051    7.93596248675981   -3.01071452991264
C          -3.18590242390109    9.13530059756232   -3.66043592754995
N          -3.47848369041434   10.10938527650500   -4.19013177902067
C          -2.95676246157726    6.75985886755014   -3.77849628941471
N          -3.06174031716087    5.80635799767440   -4.40693601426878
C          -2.40553365665038   10.43209749231362   -0.85532156290704
C          -2.07164752506291   11.03057154273609    0.34814629908472
S          -1.49592705708140    9.85467532413014    1.52872655911186
C          -2.17506345385218   12.40775314718900    0.69138852961845
C          -1.77799783671329   12.90269144649428    1.91198957063116
C          -1.90308687179210   14.22911061043859    2.31720613898578
C          -2.60325311257533   15.20425327557660    1.46775061225295
C          -3.03712079242097   14.94753826944230    0.21532818330035
S          -2.86816686504146   13.42937163494695   -0.56432662756543
C          -2.69500685471587   16.39115445469302    2.24529739797811
C          -2.08840713062258   16.18570440485218    3.48394139190132
C          -2.14550485046394   17.33507592567057    4.30263305913113
C          -2.78350977244572   18.35899235004299    3.67792779298284
S          -3.33283841884751   17.97769706677805    2.08002837009210
C          -1.55279036092899   14.84936224587785    3.53447310542544
C          -0.79180847834771   14.38194905954468    4.63050704032525
C           0.07455801051770   13.33227942547307    4.64276093902273
C           0.84773073374533   12.95910329582705    5.76732945868097
C           0.81602660667748   13.45796679966528    7.06333192300004
C           1.77379696703051   12.86661096678603    7.87890571483001
C           2.55209587538404   11.90179651193455    7.21304018319107
S           2.08476068342116   11.71950757797435    5.57926646718584
C           3.51013823432004   11.39208513918171    8.12101003341123
C           3.33517961517584   12.02765806222363    9.36458038955048
C           2.23855414899675   12.97014250073568    9.25607217320188
C           1.75052108287912   13.79275688607207   10.22966443792559
C           2.28361251897176   13.80988521834994   11.53520469954928
N           2.71565536212682   13.82699605771804   12.59743672261374
C           0.68466070683334   14.68411873055451    9.99073517278967
N          -0.17837623823256   15.41415102128254    9.79608829313243
C           4.25719183036980   11.60795581175183   10.32440658315986
C           5.13486171862530   10.66660667037092    9.82363415729290
S           4.80883922561084   10.28137139546147    8.13643418038863
C           6.21470274584638   10.04475796942799   10.50072342381215
C           7.13670640025890    9.15245693964920    9.98663619081229
C           8.07754875295969    8.76719575956980   10.94322037081786
C           7.86574516677672    9.36667304424886   12.19116657539688
S           6.51242006349152   10.40827666672095   12.19464753642393
C           8.87546313358662    8.91339910325683   13.08704772141577
C           9.72004099065330    8.03273684042632   12.40048020487797
C           9.25474257458082    7.90979976708107   11.03251682941378
C           9.80217610079919    7.16168571258513   10.03123986978285
C          10.95297174710516    6.37009092321714   10.22749309051091
N          11.88941566354514    5.72606322336601   10.38048278466592
C           9.25662590055951    7.13319928819866    8.73100700164650
N           8.81666274827899    7.11465987316456    7.67202365495727
C          10.75547564268498    7.53619578072278   13.21615760518340
C          10.67640793887070    8.03948321267657   14.47844545669738
S           9.34728563296603    9.12807858835067   14.71277382567330
H          -1.07690132354533   -3.98927997575644   -0.15426914623439
H          -0.46958874874053   -2.95342334763847    2.17003747623394
H          -0.72191911173550    3.25577957921607    2.34865478724237
H          -2.18196698162343    4.83041876421180   -1.99156947395006
H          -2.77477191760823   10.98585232911579   -1.69961747439236
H          -1.37649693579852   12.18337657083167    2.61242061367567
H          -3.52291360125778   15.69232650644520   -0.39496773220861
H          -1.74442545260648   17.40711145630163    5.29718165691632
H          -2.97415525478909   19.34332268603886    4.05857156954844
H          -0.87146188021376   14.98565443439231    5.52476291522201
H           0.25864813092472   12.76879458104575    3.74012152378941
H           0.12436688500867   14.21327071462444    7.38652712784529
H           4.30383262423014   11.96667783764860   11.33707523214001
H           7.11331076053088    8.81421811289250    8.96620411466404
H          11.51559122357841    6.84824033932524   12.89407098114965
H          11.32515270282036    7.84000266953388   15.30759587584541
