108
 SCF done       -233.365989572678          0.000705164336
C           3.97689021311348   -2.36069188711394    5.35026783373933
C           4.74015171790125   -2.83494272636303    6.38030663577556
F           5.65029456563584   -2.04475575303109    6.96290780244895
C           4.58098604305374   -4.15721129087850    6.84163217306974
F           5.34206240739611   -4.59493287342685    7.85295451124561
C           3.66131525477721   -4.98790979172182    6.26498773336322
C           2.86171801722972   -4.52912709556541    5.20037608011806
C           3.01969944466815   -3.19165582015980    4.73453512851066
C           2.22690076662107   -2.70774583890039    3.66810651085356
C           1.30795224953988   -3.53728723376324    3.08189909797019
C           1.16447684470304   -4.87404161791178    3.54897623505494
C           1.90967091590483   -5.36839552392450    4.58034458756414
C           0.13946355042058   -5.55626252253803    2.74366171986280
O          -0.24277344549632   -6.70619590871892    2.88321778494115
C          -0.31252193093825   -4.58500500138756    1.74272097710700
C           0.36773675966958   -3.32516106596690    1.98285466391191
C           0.16192800463700   -2.13262855141702    1.34047172131515
C          -0.78246286357990   -1.90152139971378    0.31759692425153
N          -1.53378445183262   -1.63378018511724   -0.50837281752992
C           0.86370800083527   -0.94509620028367    1.63929212042461
N           1.40001217411560    0.05129570688847    1.83122546755694
C          -1.17680908757486   -4.85201483844151    0.71087305792760
C          -1.85755296308855   -6.03304323155864    0.38041693010188
C          -2.64210199619626   -6.12957882936211   -0.77684157994079
C          -3.21459075689789   -7.37690615948417   -0.92598781517762
C          -2.88272373983548   -8.24881458313503    0.14023002414692
S          -1.85550392250469   -7.54020828421286    1.29816122486438
C          -3.50441959926922   -9.49552044959972   -0.10920245968395
C          -4.21833053732320   -9.42144243546415   -1.31961004598210
C          -4.06426682719269   -8.08475127664185   -1.87113945314877
C          -4.59913926644965   -7.60662249592462   -3.03040268668291
C          -5.41304764618341   -8.40644189737372   -3.86063660151604
N          -6.07430153713582   -9.06190668208582   -4.52962083711897
C          -4.37248501808051   -6.28739199568068   -3.47817545945673
N          -4.18838897860047   -5.21939626381119   -3.85103539532148
C          -4.84968345349007  -10.61778375662866   -1.65317110266145
C          -4.62768199114696  -11.59987056538105   -0.70315511561967
S          -3.62372843912713  -11.03493688582270    0.62309991465855
C          -5.09951072792944  -12.93648461050499   -0.72081152730976
C          -4.94550809959300  -13.89858123879970    0.26167950801279
C          -5.52750205779398  -15.11160186844930   -0.10218672340126
C          -6.12310846321791  -15.07256196338020   -1.37546060305497
S          -5.97845854434493  -13.54224788491878   -2.11775712381043
C          -6.67049391206667  -16.34892357256154   -1.65776773209828
C          -6.42776496366066  -17.19429997881817   -0.56021331700372
C          -5.70560142527726  -16.44355679883569    0.45539229733193
C          -5.28843171239712  -16.89143875452261    1.67353247111760
C          -5.53076362434014  -18.21204020477154    2.10831491949597
N          -5.73104438924146  -19.28463384682971    2.45977199593310
C          -4.59299483559332  -16.06050890736887    2.57779972254445
N          -4.03034031292783  -15.38261135902826    3.31119739224481
C          -6.92494106717116  -18.48268067422774   -0.74752980739725
C          -7.53896295078856  -18.62542729748942   -1.97945670400971
S          -7.50483527069166  -17.13936901677405   -2.91928763447001
C          -8.14904418086012  -19.78744179348046   -2.51366146399126
C          -8.72490677782213  -19.93237225179060   -3.76515883364608
C          -9.22888242114435  -21.21562211841542   -3.95941772609284
C          -9.03853995751881  -22.05395775526679   -2.84613683148134
S          -8.23303774013816  -21.26141230108747   -1.56339582560888
C          -9.58178865628159  -23.32600747767324   -3.14135486911022
C         -10.12255264458689  -23.29423201525249   -4.44450658989975
C          -9.91338567619808  -21.96869717783381   -5.00100821464831
C         -10.27725000254921  -21.51943054001188   -6.23550432104121
C         -10.94750033468523  -22.34046187252392   -7.16802927492725
N         -11.49790291758731  -23.00088548986350   -7.92603654195951
C         -10.01241901800334  -20.19890666727883   -6.65745555160913
N          -9.79867383263838  -19.12478923142247   -6.99623363020741
C         -10.70077774413861  -24.50149337668202   -4.81532135644869
C         -10.57981936976728  -25.47155018939559   -3.82919480103701
S          -9.77155106900410  -24.84093157879301   -2.39307400900212
C         -11.12852852301994  -26.77050042317059   -3.89417779019984
C         -10.89745150941310  -27.86268238096821   -3.11401982736322
C         -11.92899207349286  -28.93614519647628   -3.04907568172423
O         -12.86834903463212  -29.08315207495995   -3.79460234279232
C         -11.58889351387203  -29.72226972271362   -1.84538662913316
C         -12.28651148789708  -30.73871016524027   -1.25942415779850
C         -11.77941200576766  -31.32832954714308   -0.07960591633593
C         -10.55666084976593  -30.84809941941042    0.47383029605644
C         -10.06285629212942  -31.43445708609560    1.65644900780166
C         -10.74855840551856  -32.45117890140177    2.25960073325294
C         -11.95631783002496  -32.92701418129874    1.71014812262775
C         -12.46171329317838  -32.37864045446489    0.56473595784632
F         -12.60763372222467  -33.92367715899356    2.32350302887810
F         -10.27800900559090  -33.00651651950331    3.38354654207945
C          -9.85075883339386  -29.80024467860054   -0.16071450058584
C         -10.35760176771023  -29.25002674384299   -1.30691458833723
C          -9.84281172351093  -28.20230130295118   -2.18468970731843
C          -8.52609926775428  -27.83547436611748   -2.28749322574965
C          -8.02665664717368  -27.04525706034530   -3.34269267024819
N          -7.58790723238682  -26.43544464468137   -4.21097069696808
C          -7.51792862273837  -28.28652998412954   -1.41195417686992
N          -6.66866898326799  -28.61550568203707   -0.71368640582983
H           4.11101826044634   -1.34569360628052    5.01027397846857
H           3.55191430677173   -5.99741923213379    6.62908244833952
H           2.37307986046105   -1.69157046749182    3.34017993637811
H           1.77716307824145   -6.38583852853925    4.91535568136967
H          -1.36434512374029   -4.04827017945470    0.00886065811475
H          -2.76081301206774   -5.30511585261619   -1.45765358135783
H          -5.44312679698735  -10.78287342881910   -2.53454805341931
H          -4.43470020954055  -13.70757506932471    1.18835408997835
H          -6.84940122714933  -19.28706525810598   -0.03792706757185
H          -8.76310136077576  -19.13406155398749   -4.48446622899955
H         -11.17124076347745  -24.69853259186191   -5.76169727889210
H         -11.92185374326717  -26.89420502780335   -4.62620438320795
H         -13.21271101362777  -31.08827518838807   -1.68919815140183
H          -9.13787978822810  -31.08518009901477    2.08797918464192
H         -13.38727918609905  -32.75385669355308    0.15697160471747
H          -8.93171643704255  -29.44976650325736    0.28159900438467
