105
 SCF done       -223.283071148572          0.000675388578
C          -7.98857897646904    0.56834989789729   -6.21387560668613
C          -9.14125626950783    0.56483247535072   -6.94915597199109
F          -9.48664247102110    1.64238263128002   -7.66724641788088
C          -9.98540645438502   -0.56188614687453   -6.95375930151224
F         -11.11826598934543   -0.53089685096155   -7.67808572162711
C          -9.66438529210114   -1.67789188213696   -6.23622823702750
C          -8.46770887946557   -1.71480724785614   -5.49689788964136
C          -7.62124411512132   -0.56990437616916   -5.46901491932139
C          -6.43553281358937   -0.58065778506321   -4.69705113201033
C          -6.09914271177238   -1.70922733582757   -3.99704851132379
C          -6.92901397043374   -2.86389721494990   -4.07377097687658
C          -8.08925994916328   -2.87639472517815   -4.79176839612712
C          -6.32890372641361   -3.94584408339727   -3.28157249124923
O          -6.73893633277984   -5.09348288392658   -3.20130125347257
C          -5.16597471089908   -3.35659584006022   -2.60543809399546
C          -4.97702660926496   -2.00880227713790   -3.11210085192046
C          -3.91569939340600   -1.17979510206944   -2.86179415612867
C          -2.79589305471170   -1.51042125217074   -2.06932797715768
N          -1.84812785941371   -1.71583399251602   -1.45448229498624
C          -3.78680411030694    0.11837876726832   -3.39936163573241
N          -3.62741512728758    1.18237012443925   -3.79926379996133
C          -4.48779291223996   -3.91843263806594   -1.55382363412554
C          -4.58518976363712   -5.21173519947505   -1.01709667599971
C          -3.95780349278822   -5.58522055942855    0.17905862052851
C          -4.17297279702638   -6.91366262331847    0.49359335685935
C          -4.93290151847117   -7.57415054928988   -0.50257278340709
S          -5.44488366939507   -6.55674658317761   -1.75992163080086
C          -5.10722517864963   -8.91505018642164   -0.09501688155376
C          -4.49670581379983   -9.11052165446394    1.15579521039557
C          -3.86864053078354   -7.85945177783941    1.55805304086152
C          -3.15199202866110   -7.62817450712887    2.69452582808120
C          -2.92070925095800   -8.63811539431239    3.65256890396846
N          -2.72892865947073   -9.45678749592412    4.43203404433457
C          -2.59441467613970   -6.36543864233474    2.98861937817562
N          -2.14423826908102   -5.34132084445520    3.23868863788928
C          -4.68528911658521  -10.39889360246196    1.65383137087993
C          -5.44481637607887  -11.18960019092574    0.80476856123875
S          -5.87645624857652  -10.31904498742695   -0.66873175301170
C          -5.81241330589141  -12.55807209416549    1.00966924025639
S          -4.87941667604569  -13.33322228887298    2.32155713119166
C          -4.65449934695142  -14.95506098202843    1.68205763529689
C          -3.56539350115722  -15.72065444420635    1.96155803671029
S          -3.66286490024051  -17.26990952827135    1.22488425574628
C          -5.17568418537847  -16.87688519984087    0.51119721188864
C          -5.58381839517944  -15.62269597123462    0.84440345885348
S          -7.11638086359344  -14.93432407021071    0.32742652752867
C          -6.76979167505288  -13.20393538118444    0.27617062901197
C          -7.63767289731878  -12.47236583452595   -0.60371563694165
C          -8.08326466356791  -12.87989410448247   -1.81330981102836
C          -8.73986954206647  -11.99650418526544   -2.71269531881410
C          -8.88603198614348  -10.62154624640708   -2.58816103382126
C          -9.41500791252656  -10.04288803031011   -3.73421838687982
C          -9.70395079662683  -10.97981790904596   -4.74517451210090
S          -9.29914558362261  -12.57276885346205   -4.27319817330571
C         -10.22331594102440  -10.28604566797267   -5.86310262147004
C         -10.26491633858967   -8.90678902638926   -5.55353526239727
C          -9.72620663626700   -8.70884444015499   -4.22188239917488
C          -9.47627945244686   -7.51985349155890   -3.59731736790467
C          -9.81665238835011   -6.29694326223104   -4.20484505894928
N         -10.13251524097798   -5.31838330193959   -4.71462101692609
C          -8.85895783781573   -7.45532251972139   -2.33197607795105
N          -8.35431473560529   -7.42937735393457   -1.30209002934998
C         -10.73137895591853   -8.12997395707341   -6.60405061662741
C         -11.03896795885203   -8.88773477037727   -7.72653607166919
S         -10.77100979584627  -10.60880893101665   -7.44007518082089
C         -11.55511384294773   -8.48696830608158   -8.97306104837206
C         -11.65781178349295   -7.24283267108250   -9.52555238174654
C         -12.63002862636822   -7.06001201065207  -10.64137225026534
O         -13.17619305181205   -7.93660423902325  -11.26999677579829
C         -12.81451611271856   -5.60226658199451  -10.76048048047208
C         -13.69704887006165   -4.91249829423099  -11.53990795931771
C         -13.73246919291388   -3.50301266403894  -11.45272878678157
C         -12.85257450237727   -2.83458079400107  -10.55202190410332
C         -12.90886514836558   -1.42956234213076  -10.45575871701042
C         -13.79213972686281   -0.72285805443744  -11.22335644880179
C         -14.65645683626341   -1.38466352673614  -12.11878457744411
C         -14.62897661451184   -2.74639499097805  -12.23170082781948
F         -15.51182388806952   -0.66632289899576  -12.85856570583975
F         -13.84764989132842    0.61098747170107  -11.13293236718710
C         -11.93680872824954   -3.57639559502041   -9.76924996569819
C         -11.91383688259450   -4.94132023488752   -9.87678501375833
C         -11.08242316651870   -5.95211262062866   -9.22361131776793
C          -9.85433261152111   -5.70981000136271   -8.65999108059268
C          -8.96698593519260   -6.72566596143264   -8.25668991651621
N          -8.21430283176032   -7.52887165470920   -7.92959834349135
C          -9.29649911587467   -4.42592235029906   -8.50238372068718
N          -8.79347920601294   -3.40677485083455   -8.33751664820837
H          -7.35877501347925    1.44426022869196   -6.21323178967234
H         -10.32055820815292   -2.53299719258801   -6.23340493419743
H          -5.82649802450756    0.30865504655364   -4.67505619695388
H          -8.71349260057505   -3.75659489450773   -4.82509533864524
H          -3.79103113914459   -3.28286963766762   -1.01956537635168
H          -3.38939659485145   -4.88833825978924    0.76935541538410
H          -4.31332205544613  -10.75091695319231    2.59916401972559
H          -2.72682708850759  -15.46123519757465    2.57475870357734
H          -5.69088673312364  -17.59034901179117   -0.09888065579727
H          -7.93427668336547  -11.49551344643661   -0.24948896842266
H          -7.85702258421241  -13.87402357436706   -2.17294688037855
H          -8.59290676100652  -10.06763972972747   -1.71705367830253
H         -10.89322485510633   -7.06918066412232   -6.55193500869261
H         -12.01062012995008   -9.27343827692867   -9.56864820116506
H         -14.36210897014170   -5.43515335838563  -12.21032144671180
H         -12.25954013099482   -0.90508195967489   -9.77370717970880
H         -15.29881235227255   -3.23919531525500  -12.91884102267601
H         -11.28641288101668   -3.04330024951438   -9.09445272991747
