99
 SCF done       -192.290133440429          0.000802511657
C          -0.78866542907975   -1.46883510325429    2.43337568350195
C          -0.78588279072176   -0.89259351784006    3.66598252916207
C          -0.83479662654912    0.51224012826247    3.57614464115642
C          -0.87849956841528    0.96296136044587    2.24772404144421
S          -0.85764390019509   -0.32641341484534    1.12888193898274
C          -0.93063326092154    2.38270657803100    2.24803023476582
C          -0.90633067085496    2.82300149609173    3.57977405563880
C          -0.88501771914935    1.65706539490902    4.45772408878882
C          -0.98398488942432    1.67037978541861    5.82093807684515
C          -1.16575886472579    2.87844526081554    6.51831754389775
N          -1.35607162788317    3.87638513138215    7.05317083919215
C          -0.96656573307124    0.49057815247335    6.59230287543382
N          -0.94760546706742   -0.47102419760623    7.21630703174071
C          -0.90340892775550    4.20812610464178    3.70378401152453
C          -0.96787334139538    4.84645242986931    2.47354669218174
S          -0.99172320068370    3.68501947249910    1.14378941523964
C          -0.99740140104355    6.22803825787028    2.18381616771948
S          -0.71513871794306    6.74720467065792    0.55473631051258
C          -0.82916160813581    8.43107159088635    0.96543877875536
C          -1.09747970389708    8.57959756200258    2.34118960947748
C          -1.21470466160820    7.33376043798871    3.02898455168206
C          -1.56003595749480    7.33848805989030    4.39106747824958
C          -1.72465225521259    8.52655581754114    5.05199915307254
S          -2.13960519716374    8.56401066212342    6.77689646712093
C          -1.56605390419317    9.76933708161473    4.38381905914890
O          -1.72323435107967   10.95019529624746    5.02202342068323
C          -1.26776673007062    9.78243131898757    3.04246280468156
C          -0.65203219356915    9.44692835127956    0.01683820204995
C          -0.44587055895653    9.25106787227439   -1.31954929441827
C          -0.18770169533320   10.26919961995540   -2.27030076701213
C          -0.05323465056510   11.60801655786913   -1.95749992469782
C           0.30090043199296   12.61402001570328   -2.84371811506574
C           0.37236459818748   12.35652244148004   -4.28661646173773
C           0.25579118374422   11.12607941715007   -4.83482915732781
S           0.02071500345873    9.69311841810111   -3.91976867104302
C           0.57531398155708   13.62995416135855   -4.88695456920909
C           0.65462243126005   14.61159596166766   -3.89769577847023
C           0.87486545170713   15.89687876553725   -4.43896462216238
C           0.95086470120070   15.85995599934181   -5.79511932160631
S           0.76743729657704   14.27524406548042   -6.46866496333542
C           0.52435878210755   13.99280198854910   -2.60522955063910
C           0.64037789047528   14.66667631531916   -1.37318757654322
C           0.89584802092344   14.06095322155398   -0.17650332003734
C           0.89862732525380   14.66213826989916    1.10209580226468
C           1.06076647321315   13.88075366641171    2.23697440354119
C           1.02393597571457   14.34349393567718    3.53933667291118
C           0.84737598731419   15.76322053713620    3.83567676196243
C           0.67770590525374   16.71588017758167    2.89136549038640
S           0.63529535822719   16.39278536947229    1.20659421428853
C           0.88227808207648   15.85801886008239    5.25461195558297
C           1.04417495061626   14.59278757186805    5.82242519666765
C           1.10703065649100   14.66417459540891    7.23177560906642
C           0.98769714559618   15.94186457452008    7.67956790343521
S           0.79370290667666   17.11232471772036    6.42347625731110
C           1.12230256066976   13.61548059484262    4.75925758732096
C           1.24831316629518   12.22878076434751    4.83900220559038
C           1.24111811778252   11.46905258015072    5.98726675863869
C           1.34954084065640   10.08243774235019    5.95789173453510
C           1.35080643520973    9.21727772505738    7.03693291199319
C           0.99395810461325    7.80438263998280    6.84762980540148
O           0.86694626069532    7.20025341641088    5.79734419752256
C           0.75729022845102    7.27381902866053    8.21276511290737
C           1.03479617074377    8.28080472244814    9.15403278553781
C           1.52474765758946    9.46306847735382    8.44076595518547
C           2.21145817305221   10.49674156083564    9.03532396576068
C           2.95966710383909   11.46727525899615    8.34132966497681
N           3.62545978073479   12.26478931547234    7.85058563067901
C           2.34528942940567   10.65346928612406   10.42811358297113
N           2.46814589256914   10.85174617830604   11.55318285036066
C           0.84568822798894    8.03490319984865   10.50128942108754
C           0.38769253708025    6.78003188860084   10.89083516762555
C           0.12922958769005    5.78239622665340    9.95350257053184
C           0.31372290784387    6.02787977617751    8.59798350179617
Br         -0.47904899024972    4.07507903482566   10.50364484045278
Br          0.11512811204261    6.45085804435096   12.73513836969770
H          -0.75407526190475   -2.51297080595256    2.19526426199329
H          -0.74728477819817   -1.44744102788515    4.58559946753048
H          -0.78869981727743    4.73014789824956    4.63254178997713
H          -1.72115068713626    6.41379698427687    4.91653775812072
H          -2.13157597151271    7.24813430944973    6.94996460316128
H          -1.92941431960209   10.80689935942022    5.95489046733802
H          -1.18016861390081   10.73804181067808    2.55207993933089
H          -0.68984298576337   10.45120984816693    0.41309563010749
H          -0.45329543630174    8.23542235279064   -1.69407653240884
H          -0.26051697744105   11.88380550466178   -0.93663260521983
H           0.32357180939819   10.95459559867965   -5.89742301649687
H           0.96986590687256   16.79986423059865   -3.86371584889174
H           1.10815410950923   16.68129841312206   -6.46665213282924
H           0.54136353500188   15.74503841700784   -1.40041107469062
H           1.13826003239888   13.00885873768081   -0.17004950286855
H           1.21436867777116   12.82303377315557    2.06908068781303
H           0.54322788236733   17.75793235467075    3.13342850956673
H           1.25940929479611   13.83702621147600    7.89851288058134
H           1.00544020999127   16.28246860779675    8.69628661000392
H           1.35996937129284   11.69486065382148    3.90319691353561
H           1.09863560791358   11.96086352861244    6.93430800354755
H           1.33304729279838    9.59601613696668    4.98729521928519
H           1.03262360705029    8.78402388600549   11.25351838237110
H           0.09718027155393    5.25977448888894    7.87073709168000
