108
 SCF done       -207.110837075945          0.000642651222
C          -7.07092943329116    2.22853526164876   -4.61540439990978
C          -7.30416777169969    2.46302871969390   -5.94110233703705
F          -7.45510111708313    3.71707536914148   -6.38733872857144
C          -7.38874052956602    1.39320106434405   -6.85512728814734
F          -7.61841904771079    1.65308926125434   -8.14964447385082
C          -7.23761036846615    0.10324936433732   -6.43040152186208
C          -6.99434051115640   -0.17108316519393   -5.07036542644224
C          -6.91107513950946    0.90923077470278   -4.14455472675038
C          -6.67112884297859    0.65847671266409   -2.77478554920995
C          -6.51860232274319   -0.63371446816980   -2.34231807849516
C          -6.59588658045033   -1.70338102006149   -3.27467929641275
C          -6.82708190598033   -1.49315354618056   -4.60369348204353
C          -6.38728342202936   -2.98957568834937   -2.57839058041482
O          -6.37648791532302   -4.08061564140221   -3.10540864716651
C          -6.14040205914820   -2.63928848613684   -1.15593892033504
C          -6.26736319066129   -1.19239804555460   -1.01802747391914
C          -6.21079192989406   -0.46850085783149    0.14254743023839
C          -6.34942743378318    0.93549004311497    0.20156869122790
N          -6.44677387990460    2.07318242646986    0.31792053375929
C          -6.02403987058423   -0.98374425486887    1.44474390583739
N          -5.89050212839747   -1.29385160540443    2.54249039094882
C          -5.69956924510557   -3.44921392047108   -0.15476028666742
C          -5.56307433740243   -4.87316043756947   -0.07102771083221
C          -4.64803808142856   -5.36660093474737    0.90140118504016
O          -3.96218096955929   -4.42185781085880    1.57906185700520
C          -3.40051194539259   -4.68738536960162    2.85202227596942
C          -4.47970540090455   -6.74844440376827    1.05024246598070
O          -3.52581496365013   -7.24246725302213    1.92898532874315
C          -2.33086180581391   -7.66298558980024    1.30781952169538
C          -5.25926262349371   -7.63659991011408    0.29724629540175
C          -6.18999246556798   -7.13729895622081   -0.61320094058798
C          -6.32679770008042   -5.78405604880619   -0.80658932437334
C          -5.07186624188058   -9.08702142925486    0.44550347160271
C          -4.90812147587689   -9.89056037383603   -0.69085066306013
O          -4.95955061304891   -9.31579567659143   -1.94452106170378
C          -3.70739665361926   -9.19766691794751   -2.59443588927490
C          -4.68194909229415  -11.26323322226663   -0.55667792503537
O          -4.47671656770866  -12.06276467903620   -1.65724162415491
C          -5.55122442082188  -12.15778301000111   -2.57987270164887
C          -4.60744577492521  -11.85368226413510    0.71710729048218
C          -4.76191029701777  -11.02951666323598    1.83523861277271
C          -5.00229996657390   -9.68139472776960    1.70384387738115
C          -4.36476372756481  -13.28178266306867    0.87045170315963
C          -4.80714536917718  -13.97858137770819    1.96882378039280
C          -4.54902381454833  -15.32588035202099    2.21858486991557
C          -3.73362925383699  -16.11862415819861    1.30867163941806
C          -3.22378942464315  -15.63719961409440    0.14860817365951
S          -3.46422820757061  -14.04111982265977   -0.41291319781580
C          -3.62030715656974  -17.39930406390294    1.91397720438641
C          -4.30204562798583  -17.41821205194572    3.13217947869473
C          -4.21219005273641  -18.68409380970486    3.75326018934032
C          -3.48091916873370  -19.55949579999123    3.01330988234562
S          -2.87284105247909  -18.89864597179825    1.53801826558156
C          -4.90604275652634  -16.12071344838160    3.33916811801070
C          -5.66417058341608  -15.65966669048953    4.42080822859223
C          -5.88979170122151  -16.33111318022867    5.59994866345486
C          -6.67385031319956  -15.89000481123894    6.66699963400827
C          -7.24905571070783  -14.66579214774715    6.96435101434727
C          -8.41206451993209  -14.67111476204634    7.87839732096916
O          -8.83211306470162  -15.60115883660117    8.53028916771748
C          -8.98403992573019  -13.30265044382426    7.80134830522922
C          -8.16183551556287  -12.51141584461720    6.98126665880566
C          -8.48703952491823  -11.18485262177508    6.75665577760301
C          -9.63705026935619  -10.65585045395220    7.34347887079941
C         -10.44554090592231  -11.45642173957858    8.16637604071101
C         -10.11599638725149  -12.79691078786349    8.39799844491034
C         -11.63136848703930  -10.96176706338965    8.76670563332487
N         -12.62449082475336  -10.69509020137208    9.27149078389891
C         -10.02593402042044   -9.21854594099141    7.17024302519983
O         -10.70523013542371   -8.64036582488752    7.96996528560278
O          -9.58030570567984   -8.60136432602731    6.06660810559479
C          -7.01954491843239  -13.32012323295437    6.53762044063074
C          -5.86635524025694  -12.78580682333965    5.99707785350210
C          -4.65652421765639  -13.49188867607343    5.87366847928224
N          -3.63743377002207  -14.01087631720196    5.76648048056367
C          -5.75893111796499  -11.47216009865533    5.51683857749360
N          -5.64661264224321  -10.43680388613661    5.02688189443703
H          -7.01050044983596    3.05864388822848   -3.92899043576298
H          -7.30464901533120   -0.70448878220796   -7.14231405877719
H          -6.60986887278346    1.49867094768952   -2.10266460797797
H          -6.88232903835180   -2.32615842351869   -5.28804930861259
H          -5.35133015740028   -2.95031953763214    0.74205823824770
H          -3.32672322493037   -3.71346421498375    3.33677401408397
H          -2.40451075092746   -5.12679927249727    2.76683178953715
H          -4.03788894192753   -5.34557860553169    3.44236838673414
H          -1.84560917046325   -6.83622408080852    0.77548284783498
H          -2.50896013705418   -8.48408520477058    0.60508458314438
H          -1.68314193599876   -8.01204471151137    2.10968477452089
H          -6.79919668186007   -7.82919859365427   -1.17111561374264
H          -7.04233664887620   -5.41797361993602   -1.52165112660720
H          -3.92129763935635   -8.78362470990827   -3.57756079365158
H          -3.21027561423262  -10.16629348857347   -2.69890243102637
H          -3.05168843996308   -8.51149995345297   -2.04779105869568
H          -5.18502988210497  -12.77948879616445   -3.39441530723062
H          -5.84334149412155  -11.17838943187023   -2.96161182407104
H          -6.41693872003108  -12.63709325550446   -2.11175542989860
H          -4.66218360627981  -11.44239288958582    2.82580100485295
H          -5.11728314776943   -9.07525341414206    2.58761340105973
H          -5.39729355133313  -13.43044325864399    2.68899305954083
H          -2.63752951086218  -16.25018406839241   -0.51797739962221
H          -4.65667645049600  -18.96045022008074    4.69107968948811
H          -3.25312787155007  -20.58101808151942    3.24743245248936
H          -6.14505983523534  -14.70055595969828    4.28235930072063
H          -5.47244693727093  -17.32022717809334    5.70438789690819
H          -6.97104218912933  -16.66142901458032    7.37304268048867
H          -7.84053146830366  -10.56002912727713    6.15824775751700
H         -10.73170473897810  -13.41629274666528    9.03214542966212
H          -9.04463272067333   -9.16406896927288    5.49141921902648
