102
 SCF done       -212.758402711065          0.000983557060
C          -8.66158757999635   -0.06653658855291    7.48259173008192
C          -8.93142686054971   -0.38596595400161    8.78433188923858
F          -9.57896063829372    0.48493460533409    9.56976495176886
C          -8.53217086778227   -1.62935490093260    9.31417426204050
F          -8.81579375308377   -1.92360846372358   10.59400753522760
C          -7.87031785545030   -2.53748326210856    8.53832756456827
C          -7.59331600217425   -2.24225116979682    7.18990570040280
C          -7.99156922184173   -0.98566164421338    6.64932110084334
C          -7.71744681453726   -0.67394492213668    5.29823020843470
C          -7.09021379887549   -1.60208570318092    4.50698668013716
C          -6.71880940735875   -2.86381312218950    5.05159014498959
C          -6.94011332635657   -3.18049793849801    6.36137858677298
C          -6.09894342683514   -3.69244432720976    4.00353606450489
O          -5.57027207104259   -4.77089455643108    4.15628783847186
C          -6.15453083338192   -2.86842953492893    2.75900401164583
C          -6.70006601818336   -1.56488355021438    3.10136020539903
C          -6.86458282729456   -0.49959238637355    2.25689905258760
C          -7.42659364493261    0.73689014051331    2.64126047558164
N          -7.87455282813356    1.76431852190198    2.88806060295170
C          -6.49324919108458   -0.47203988188985    0.89578446336720
N          -6.21936062821683   -0.37287135044823   -0.21500171743692
C          -5.66960574541181   -3.26603107387535    1.55596180638987
C          -5.34459113201224   -4.62779137070481    1.23814721969636
C          -4.25352851993630   -4.97545352474384    0.44261336876022
C          -3.87694993861451   -6.31784106861873    0.19355215564832
N          -2.75536276227364   -6.44916436533842   -0.56667701081831
C          -2.27167074052847   -5.31860818320834   -0.90276836241680
S          -3.11594406364831   -3.90757683839983   -0.31568121936297
C          -4.59680749623942   -7.39304404382893    0.74191739878746
C          -5.76077458656301   -7.04313064344706    1.43069372915033
C          -6.14388308573491   -5.70303841644527    1.66852348429330
N          -7.35316402275666   -5.56346343861837    2.27678102988283
C          -7.89588786195032   -6.68926983702546    2.51960238929675
S          -6.99958607780017   -8.10217944552073    2.03743809713461
C          -4.14480563969541   -8.76188515260422    0.61404895636899
C          -4.30976857041641   -9.65586697755805    1.64116049215116
C          -3.91461429829656  -10.99293789402405    1.61399235563616
C          -3.22844112301721  -11.53283615704020    0.43384396342809
C          -2.95247404167472  -10.81301176694975   -0.67977528208170
S          -3.35029085714151   -9.16178375732073   -0.88767424323015
C          -2.91331786191795  -12.87958459269116    0.75745157167307
C          -3.34975029663115  -13.16114514834730    2.05223052284261
C          -3.05629520261886  -14.48763657754968    2.43783295331042
C          -2.41666539142502  -15.16296893531960    1.44776460730691
S          -2.14609226483238  -14.22664677977944    0.01504925142253
C          -3.99211457256002  -11.99628014822818    2.60459880952301
C          -4.52404919953414  -11.99099076462296    3.91545312782817
C          -5.35493176497871  -11.07482165938058    4.47992224080089
C          -5.79378014291171  -11.08535360591323    5.83454482605597
C          -6.62423170821216  -10.05799030429846    6.31016448306233
C          -7.07210938006551   -9.93882430904377    7.64088496756883
N          -7.89526518742698   -8.87646183072360    7.86221117469111
C          -8.06757131738165   -8.17951769228513    6.80566428893211
S          -7.25180698598891   -8.73026659808759    5.37829393894407
C          -6.69057023752968  -10.87982253964063    8.62314864411335
C          -5.91025575220613  -11.94005670594618    8.14192258787573
C          -5.45189911826802  -12.05271230271580    6.80945045619066
N          -4.67618576408365  -13.15125094374691    6.58971986898551
C          -4.51575153788427  -13.84813283946984    7.64511747946309
S          -5.29608805492012  -13.25705940444743    9.08688659075166
C          -7.08629997084436  -10.82483993847578    9.98902992333195
C          -7.45036029157224   -9.75407690325564   10.74874319475965
C          -8.22707692993411   -9.97734074342274   11.99788565310541
O          -8.40146323681464  -11.02850163199508   12.56982192906294
C          -8.77912477918385   -8.65160333297666   12.34970036053208
C          -9.65225397258619   -8.32314264376761   13.34520663160064
C         -10.06576828450348   -6.97837009195458   13.48193946608127
C          -9.56029577379474   -5.99470198316786   12.58266935368200
C          -9.97891421727214   -4.65591603927635   12.72442419844151
C         -10.86016463905445   -4.31248531610007   13.71154126636284
C         -11.35948430183710   -5.28613388869139   14.59941454680565
C         -10.97003273577200   -6.59160429160261   14.48955571268009
F         -12.22362596034212   -4.92066311783853   15.55704817651684
F         -11.26189853024255   -3.04259196395016   13.84576880500772
C          -8.64924435988889   -6.36516074523297   11.56650605342171
C          -8.26434154203559   -7.67429031727878   11.45000985693181
C          -7.33349651119673   -8.33239382908017   10.53934417697170
C          -6.38043589361098   -7.70275145262029    9.77745026971926
C          -5.30773372144497   -8.37862340549727    9.16400746632032
N          -4.39479962822814   -8.88120927827443    8.68215197599941
C          -6.36230316829777   -6.32310962981382    9.52603482316751
N          -6.33339322176067   -5.21318029870415    9.22843308523067
H          -8.96956466428631    0.89180495310993    7.09441862777107
H          -7.54214845861334   -3.47859784261089    8.95280548992380
H          -8.01595746447368    0.29111206579712    4.92194331085683
H          -6.62918330553856   -4.13226998286210    6.76497334562673
H          -5.48893966491621   -2.54271068880993    0.77072455628775
H          -1.39459555926801   -5.20697225135071   -1.50934476934423
H          -8.85174271690900   -6.79908189079678    2.99316822994143
H          -4.72838605048576   -9.26453837706855    2.55481175938594
H          -2.43597167046966  -11.24351203397151   -1.52360965493530
H          -3.30114594630699  -14.91960288801451    3.39098577432250
H          -2.07381819175238  -16.17915892162302    1.46019863714724
H          -4.23285683766796  -12.83267558132380    4.52968155195324
H          -5.75270896609819  -10.25986078511640    3.89167486496262
H          -8.67546245694576   -7.29593567021760    6.77485638161775
H          -3.93793803607152  -14.75094972150026    7.67723126783675
H          -7.15707282363878  -11.78595040668472   10.49227332995543
H         -10.02417659860287   -9.07829441751197   14.02086333142560
H          -9.60381629557264   -3.89223042171983   12.06117539714819
H         -11.36001042437831   -7.32493232133732   15.17791468935921
H          -8.28482229746112   -5.60232834716069   10.89732288182605
