108
 SCF done       -208.561392038729          0.000411502782
C         -16.73110365766976    1.27313096730590    3.17779048109224
C         -18.09157172990414    1.31126057760932    3.30407113812631
F         -18.75601868812289    2.45535344044622    3.09221375447642
C         -18.81161795849721    0.15276476853286    3.65692229958559
F         -20.14551756679776    0.21802878658389    3.77234714948685
C         -18.16067180639999   -1.02802676441746    3.88082362037532
C         -16.75928996680981   -1.09870848314944    3.76173303864086
C         -16.03013581313779    0.07113984039583    3.40076087940270
C         -14.62254104018417    0.02232434589816    3.27151737816395
C         -13.96810521372730   -1.15814642129479    3.50244666198914
C         -14.70203005844610   -2.31802445803350    3.87604445479321
C         -16.06061944461643   -2.30327357697733    4.00194093405627
C         -13.76960181264919   -3.44089991049935    4.10576215903004
O         -14.07395291977167   -4.56475177427317    4.45110783975049
C         -12.41872715158071   -2.87724989795929    3.90969897642528
C         -12.55318184549357   -1.51110315544851    3.44817646790220
C         -11.54772437210685   -0.72487242822573    2.94930759454374
C         -11.73475135045455    0.59649825215439    2.49480114357919
N         -11.83332790786333    1.67784837670185    2.12231266789540
C         -10.21729144796388   -1.15982776186315    2.77193034580334
N          -9.13029224054476   -1.46898894058433    2.56908851896010
C         -11.24891763317819   -3.45544824579347    4.32713674235501
C         -11.05119410359543   -4.78501250952066    4.75568606171873
S          -9.89245817875717   -5.05249030002512    6.03976031511347
C         -10.34142584565158   -6.70114737565447    6.14104697369452
C         -11.28558377596146   -7.06543409936813    5.22844679755429
C         -11.82317122180815   -8.44947045944474    5.09076307683853
C         -11.67791960152474   -5.97894141517663    4.39622095960540
C         -12.51245717550277   -6.14988416540776    3.23919399644175
C         -12.31453067351012   -5.51205539543595    2.06450978454888
C         -13.12327475643759   -5.72055924071095    0.91612589696334
C         -12.82918488140600   -5.21382994779242   -0.30535997020772
C         -13.59987954293710   -5.41620959149665   -1.47822203842533
C         -13.24181118838343   -5.08047083080532   -2.77262994129018
C         -14.21498570536416   -5.44502198966032   -3.70293614849372
C         -15.33827881110571   -6.04826615986470   -3.11030452115174
S         -15.18254550060256   -6.18721790018959   -1.41660719082159
C         -16.26856776295646   -6.37745061830833   -4.12999694252648
C         -15.72644424154792   -5.99145467494790   -5.36625277837420
C         -14.40741148511141   -5.42204283674313   -5.14420865006049
C         -13.51495331009456   -5.03430253221828   -6.10095052552165
C         -13.79230772307993   -5.18239289857603   -7.47597700831279
N         -14.01154843221419   -5.33465099970646   -8.59165660101412
C         -12.24751688863991   -4.50608948348835   -5.77761907632108
N         -11.21861634736983   -4.07420604355140   -5.51429646561207
C         -16.57298695905751   -6.25574047230811   -6.44225373445533
C         -17.74728307710516   -6.86398960284681   -6.04447138228376
S         -17.81555258504317   -7.08146990709509   -4.29926213181783
C         -18.85305519056473   -7.26274072953744   -6.85270698224005
S         -20.44046261906831   -7.28149197809479   -6.14404897505550
C         -21.15536034073014   -7.65149109498876   -7.66179170832728
C         -20.24933036951639   -7.75051549393258   -8.66647774614398
C         -20.60935070503490   -8.08131761703031  -10.07576395573876
C         -18.90365526752603   -7.55342001625097   -8.21377384431567
C         -17.79202086457015   -7.73708891763526   -9.10402725270917
C         -16.56942650081797   -8.20710913242515   -8.76630225022193
C         -15.53290130048431   -8.42272900137820   -9.70630458973011
C         -14.30661793534040   -8.89398605871822   -9.35235615600196
C         -13.21298664046468   -9.12338518747635  -10.21630429318346
C         -13.15078908113710   -9.33253262810178  -11.56600849098722
C         -11.82901232899746   -9.16784933583005  -12.23154605537682
O         -10.75451304953354   -9.05650020201949  -11.68714132810153
C         -12.11556918999391   -9.13702377849009  -13.67977651822426
C         -11.26160220643806   -8.90972887203639  -14.71945565955280
C         -11.76933858859438   -8.91368249726836  -16.03808148687403
C         -13.15958037176285   -9.14341986216430  -16.24965704285552
C         -13.66126823711801   -9.14169479473352  -17.56671525803538
C         -12.82165741838769   -8.92743054529300  -18.62339115754168
C         -11.44660414590221   -8.70259502790557  -18.41299291309339
C         -10.93004465377065   -8.69493058425235  -17.14771923448031
F         -10.64681357712899   -8.49527976778247  -19.46842276717896
F         -13.30060023334016   -8.92957894966424  -19.87504681476630
C         -14.01853575943145   -9.37972879091623  -15.15157281181274
C         -13.50159489371163   -9.38730988887231  -13.88369989966434
C         -14.12413383982267   -9.64935034669418  -12.58489153058568
C         -15.32102219888933  -10.30194581739172  -12.42250333518280
C         -15.80478528514448  -10.78484173100221  -11.19223388687526
N         -16.24341979656912  -11.22365792640923  -10.22603406888970
C         -16.19000415169966  -10.63377897312307  -13.48119740532884
N         -16.95528780088640  -10.90301496111571  -14.29400836910462
H         -16.19541507441565    2.16912094008342    2.90556717019651
H         -18.72612270820628   -1.90574763738718    4.15220304910407
H         -14.09664064698367    0.92430535820142    3.00250237402461
H         -16.59520768633437   -3.19730986657330    4.28478476059385
H         -10.38906079815440   -2.80643363576280    4.45481677638538
H          -9.87585190960960   -7.32579917045540    6.87886646866076
H         -11.38807235951318   -9.10270601915491    5.84223716684226
H         -11.59452307935087   -8.84846746060603    4.10337608109355
H         -12.90530322902935   -8.44463101408982    5.21326457725529
H         -13.28580440007865   -6.90156830991828    3.31179905953254
H         -11.48356294564686   -4.82488720891895    1.96257876471954
H         -14.00841675826659   -6.33289789087561    1.03699089067544
H         -11.92631785887294   -4.63115892150426   -0.43763600721633
H         -12.30895246138338   -4.60282134371606   -3.01174855128676
H         -16.36373111223635   -6.00181008038082   -7.46439040563436
H         -22.21851016840364   -7.77655344584088   -7.72090752198452
H         -21.68218980429371   -8.22857804918386  -10.16506864561054
H         -20.10302860253690   -8.99174046563484  -10.39332337159077
H         -20.31359396580857   -7.27425582060767  -10.74541390101847
H         -17.99909382574379   -7.54912978607202  -10.14993449475218
H         -16.36230753828004   -8.48098653322650   -7.74147439345883
H         -15.72895637195881   -8.14771323248819  -10.73432089132767
H         -14.11048414362146   -9.04407726228529   -8.29809563688441
H         -12.23284289068619   -9.07929479909434   -9.74785949408123
H         -10.21242472146938   -8.73208768974385  -14.53893503712485
H         -14.71061905798190   -9.31653304654836  -17.74615038448532
H          -9.87525781162855   -8.52135464296543  -17.00285303935388
H         -15.06678212809756   -9.54381853875566  -15.34355457863437
