95
 SCF done       -179.483311258511          0.000335354663
C          -7.73841481605692   -0.12324277975833   -0.47239827958810
C          -6.58465005968384   -0.59576069533584    0.07446245053295
C          -5.57711174899512    0.38815938485884    0.07301879672683
C          -6.01047075024829    1.59634213321366   -0.48460098179731
S          -7.63471546129384    1.52415041381367   -1.00106422784640
C          -4.93356688940632    2.53054047879256   -0.44087133110772
C          -3.82863687227607    1.90179955219466    0.14164631343831
C          -4.19605555332664    0.53593039262217    0.49290682308645
C          -3.40424949287583   -0.38961683097878    1.10845302705700
C          -2.08126127956287   -0.09151744359498    1.49480261956806
N          -1.01040453660578    0.16538994204239    1.81623238530137
C          -3.85773263491679   -1.69047413932247    1.41039975169222
N          -4.22114703310457   -2.74972165041827    1.65684171157225
C          -2.70471661075653    2.72857347227700    0.22639533443409
C          -2.94980474839942    3.99025470309093   -0.27793130523769
S          -4.59834945140520    4.14492378070893   -0.87781998825632
C          -2.08274833471022    5.11770454276376   -0.36321770290952
S          -2.53892801405539    6.45394290547515   -1.37579470003571
C          -1.10404296143770    7.34522761607067   -0.95480276368577
C          -0.31999921640584    6.61286580194333   -0.07964049531513
C          -0.87170653169520    5.36183785250771    0.25981366431877
C          -0.21004593592122    4.41352466311638    1.21135864297754
C           0.93020371163228    5.08809155607278    1.98809715663125
C           0.39294004096264    5.96256727763886    3.00580325503845
N          -0.03825963339510    6.66423202404494    3.79779072850090
C           1.81181631136859    5.90874154192856    1.02338179573267
C           2.27537624858556    5.06000482666991   -0.05141280265477
N           2.62352758395461    4.39074421618757   -0.90916721597777
C           0.99995475398300    7.07872490344216    0.45108994494882
C          -0.89513852893340    8.66690634798785   -1.44867032989155
S           0.12687211897522    9.77596381467018   -0.58123793202545
C          -0.19864469242944   11.06569480141913   -1.70275172438615
C          -1.05827144670949   10.63285992294715   -2.69715489840876
C          -1.45426169265718    9.28960336751774   -2.55082170356771
C          -2.38518271760500    8.61279581565894   -3.50728060663673
C          -2.51707550821776    9.40024506713069   -4.81820474066559
C          -1.31183598631574    9.26290195784873   -5.60467691342600
N          -0.35257751476787    9.16039975992747   -6.21647816663601
C          -2.76459209214851   10.89299516767449   -4.51441593356572
C          -3.92910174040724   11.02469368011548   -3.66788779486368
N          -4.84322364991604   11.12094354528255   -2.98957873919615
C          -1.53637460633272   11.49810027219825   -3.82064152687746
C           0.44340300459822   12.33017514868776   -1.55033812489321
S           0.66511738571757   13.38715327579147   -2.91571987775909
C           1.53461320957443   14.54682902250756   -1.95749990708495
C           1.63595589476885   14.12437554722370   -0.64380495187251
C           1.01552494670012   12.88031176207652   -0.41583546870988
C           0.97205662265587   12.24087428597609    0.93702494778033
C           1.28935211153421   13.25786247283166    2.04179615698949
C           0.19106030710017   14.18726890079263    2.18456042732211
N          -0.67844865794158   14.92224402832452    2.27744640201008
C           2.57698197002041   14.02893959773781    1.68303616228808
C           3.64823858940868   13.08762542612047    1.44766387279508
N           4.48531900349502   12.33565215176881    1.24936479152702
C           2.34181018360962   14.88929895342595    0.43286267996849
C           2.02733860996744   15.72811173950762   -2.58355533827086
C           2.50228542189169   16.89235344256979   -2.01318900315478
C           2.90992408942872   17.82035447253000   -2.97568122216935
C           2.73418780968803   17.36847621393249   -4.28733321942527
S           2.07662085113929   15.79547214195040   -4.34265577325985
C           3.17045483284273   18.39385740007499   -5.17766693730546
C           3.62038590958234   19.48156447256718   -4.42071418361076
C           3.48114352954914   19.16060225138533   -3.01254175369608
C           3.82887577781773   19.92932345925106   -1.93984716761136
C           4.38165445424448   21.21894326729185   -2.08229040357603
N           4.83008283709505   22.26851423885109   -2.19248473444481
C           3.66854676781280   19.46881059630445   -0.61669816854552
N           3.54495243162096   19.07922650352224    0.45524628333442
C           4.07617082200288   20.54451283568756   -5.22422273187722
C           3.96391871008971   20.24738368943405   -6.54807822896625
S           3.30514071953192   18.67386702996495   -6.85504615555580
H          -8.66534523153658   -0.64450862374136   -0.60347839194227
H          -6.46841833272466   -1.59404338164672    0.45494651935318
H          -1.75555444391244    2.40432931402880    0.60343596061291
H           0.20712442406423    3.56933143364347    0.65241883474699
H          -0.94828986822474    4.02097571227712    1.91628373039226
H           1.53084456353171    4.31803747599778    2.48704935771487
H           2.68964099403363    6.29842214817495    1.55253466591763
H           1.57050485219932    7.56890452968393   -0.34259231106291
H           0.83753508605212    7.81511390448079    1.24542903950743
H          -3.37610328858980    8.52562755184996   -3.04842740807301
H          -2.03126737439863    7.60033360578076   -3.72115824653772
H          -3.35060733256976    8.99267869874208   -5.40309766175294
H          -2.96000800993785   11.43855709732577   -5.44561850935166
H          -1.78078443637649   12.49632238166451   -3.44665492009056
H          -0.73481692509956   11.60973363112599   -4.55895470394292
H           1.70714386177544   11.43030528639964    0.98429615206824
H          -0.01455179142311   11.80319082896803    1.11247048536975
H           1.41690841014616   12.73213847001363    2.99560837253174
H           2.87406200983961   14.67761975505943    2.51589367113827
H           3.30134754973410   15.25644206372528    0.05804326872675
H           1.73644155652327   15.75527450243023    0.72048123735282
H           2.52194580820890   17.08253110301351   -0.95888470526264
H           4.46416097856609   21.47460606897177   -4.85107537029785
H           4.23053676815667   20.86176815144965   -7.38445903638382
