89
 SCF done       -175.446542042499          0.000477666261
C          -6.88019160170297   14.36383238843749    1.85194021356692
C          -7.04220124470326   13.53540924304036    2.91901727945063
C          -6.41906015605597   12.29026801793727    2.70237261457122
C          -5.79632290904105   12.21563873101175    1.44989803061783
S          -5.97263614194705   13.65605286785080    0.55325058294525
C          -5.20039466539733   10.92861714687877    1.31187252640819
C          -5.44256904879073   10.20552804919099    2.48532292227609
C          -6.24127135039207   11.02551276228286    3.38751111989996
C          -6.76538360040856   10.64109729148200    4.58888357157163
C          -6.59103804422436    9.34334029888270    5.11135369353504
N          -6.47765380916686    8.28605909544180    5.54358508520190
C          -7.55111576657775   11.50692761704800    5.37722678116301
N          -8.18518648527359   12.20716422991902    6.02788945364715
C          -4.88797815347248    8.92550751372236    2.46705947562825
C          -4.25540055404784    8.64904578084484    1.27092751915791
S          -4.31467320533156   10.01959691518130    0.16938375840481
C          -3.57250923532058    7.46030118547018    0.87444249928965
S          -2.35777157151113    7.58053328671452   -0.36862827981191
C          -1.93635722203761    5.92742150005090   -0.16935870095353
C          -2.66571905394275    5.30648979862880    0.79132290206271
C          -2.50669183016246    3.86755907729010    1.15316997575811
C          -3.63684079809469    6.17125483234654    1.39192599464461
C          -4.55770872913977    5.67327952981126    2.38040902881378
C          -5.84072181020963    6.06612610763986    2.53503217468071
C          -6.74006630661845    5.60351354039753    3.53955348450426
C          -6.39632902161206    4.85440856143779    4.61515266837343
C          -7.27391630511006    4.45129140424869    5.65440230736323
S          -6.57316174483521    4.28971526793569    7.22695572115070
C          -8.10488515945052    4.09798763840523    8.01391464833454
C          -9.14769281921575    4.22851455617940    7.07766368181264
C          -8.66887186580131    4.28016513656782    5.72113086502911
C          -9.60477062344973    4.04504506521173    4.67701596202150
C          -9.23479188863089    3.64814742870848    3.27499332691754
F          -8.01123971613146    3.11882066415995    3.14552044234097
F         -10.07684547374620    2.70366189600232    2.81071188987210
F          -9.32070072258811    4.65433406396979    2.37819441973267
C         -10.94854285794871    4.02624125978146    4.96594813675709
C         -11.41371964232606    4.27288489262985    6.26026844796878
C         -10.54357684848789    4.36761258448505    7.31956254556807
O         -11.08440115151547    4.57827332435495    8.55706365120827
C         -10.64387946709321    5.72924875619217    9.25206236996864
C          -8.08069602574182    3.68300314227863    9.36931299666831
C          -9.07973769651824    3.02668941354090   10.01617284327244
C          -9.01025143829838    2.52201803728232   11.34748676554659
C          -8.05789900192031    2.83914569516779   12.26494284560001
C          -8.02217151855963    2.27500633532394   13.56888917626213
C          -8.81934254133880    1.24605525595029   13.94311690379926
C          -9.77336715456046    0.65326851656662   12.92968266678184
C         -10.15139234996914    1.61761137729112   11.78723079257549
N         -10.67809309478480    0.92602572251471   10.63107365495476
C         -10.30070497314033   -0.25194755038149   10.41018048449915
C          -9.39783632021488   -0.98155779623396   11.32001697289692
N          -9.14207116581766   -0.57120515626918   12.47935945632482
F          -8.82515847440531   -2.09740408342675   10.87425204199820
F         -10.74613889094179   -0.88631906603437    9.32990059729371
C          -8.72305647839409    0.58916404224588   15.22933685460560
C          -7.57729005812122    0.60856591813280   16.00056685730576
C          -7.46297622579104   -0.03372529612414   17.25064829745897
C          -8.48814269179743   -0.73918954052987   17.81183155051169
C          -9.68505539598837   -0.79367988262174   17.07601478196307
C          -9.80890505428536   -0.14380742358386   15.79048370560205
N         -11.04107968550504   -0.36218140560627   15.37076842074132
O         -11.63832296922531   -1.09419929586405   16.31217763224584
N         -10.84529957059987   -1.36482295756552   17.34182059995763
H          -7.24034596048449   15.36617939814901    1.73533248417461
H          -7.57784076326805   13.80697730015812    3.81027473263725
H          -4.92219408327049    8.23250094750114    3.28630243940010
H          -1.16461511580089    5.50759943635504   -0.78395220359384
H          -1.75953343777770    3.39956301084720    0.51786638050544
H          -3.45153916245284    3.33951893943113    1.03449896668922
H          -2.18995816101289    3.76826807996500    2.19112549203070
H          -4.17393819458059    4.87087032839409    2.99477798127514
H          -6.25024211286677    6.78564926521141    1.83882045367147
H          -7.76106265502823    5.94152506544389    3.44733899031863
H          -5.35359351595239    4.62819157951659    4.79173297486354
H         -11.66222696008162    3.83869260313621    4.17886243066309
H         -12.47113624619724    4.35783415239811    6.45020728885978
H         -11.13219076536260    5.69176516067685   10.22353365181439
H         -10.95326904130473    6.63607875051508    8.72186925676502
H          -9.56123065499020    5.74699812976281    9.39114225676329
H          -7.12413119070563    3.81373525106558    9.85948007005051
H          -9.99770532655491    2.81420664551750    9.48994636692666
H          -7.29245531914263    3.55779008552146   12.01618470042335
H          -7.31976484452067    2.69944653094178   14.27060374986525
H         -10.68778626847329    0.34098761545714   13.45167526288408
H         -10.96314565149562    2.27389669400170   12.13104749688611
H          -6.70428408191516    1.11733439488210   15.62280224780237
H          -6.51836769889678    0.03597779386693   17.76942347691105
H          -8.41044541026627   -1.23819046707996   18.76254136122567
