97
 SCF done       -187.592921302872          0.000370374043
C         -10.04403964222982   -0.26520856413776   -3.23839599219802
C         -11.23458716604982   -0.48260241122629   -3.87345655832320
F         -11.95790928573718    0.55286892843805   -4.32188697521941
C         -11.71663718702174   -1.79253080156274   -4.06438083145538
F         -12.88833508010179   -1.97671321001554   -4.68970283732478
C         -11.00071835736432   -2.86792250742566   -3.61814148581995
C          -9.77074920928064   -2.67642966742193   -2.95986401308782
C          -9.28240794995288   -1.35241012734488   -2.76518328128407
C          -8.05185258268393   -1.13473435541619   -2.10283390383766
C          -7.33350328613377   -2.20816913793103   -1.64717965283047
C          -7.83018201913637   -3.52569916561126   -1.84662952459763
C          -9.01143321991878   -3.76890456772077   -2.48409228111182
C          -6.88574920348103   -4.49292957719023   -1.25456567213037
O          -7.00218632592579   -5.70507692038648   -1.26794669081257
C          -5.80947870240830   -3.69664188125934   -0.65706794555922
C          -6.06182696516126   -2.29682641288857   -0.93027207026417
C          -5.26844813667576   -1.22351391722797   -0.60773793673870
C          -4.02702527697498   -1.28044747025641    0.05769196499736
N          -3.00846425547530   -1.23878943007302    0.58889708766983
C          -5.58697239708650    0.11469027977653   -0.91860017880760
N          -5.78524556933996    1.22390487064655   -1.13978497282243
C          -4.75682189288017   -4.17716812701275    0.08752110921034
C          -4.40544501781535   -5.48035647006266    0.45041686879481
C          -3.30163122681909   -5.78224346256152    1.27534268132672
C          -2.32350548793390   -4.77779212783758    1.79469899163344
C          -1.27627453362777   -4.43889502564679    0.72960341110589
C          -3.17949419492105   -7.14017853021912    1.51657549450908
C          -4.14886791943419   -7.91322075367350    0.88856728256051
S          -5.25278440987821   -6.93843197771212   -0.01574582620086
C          -4.25863629177737   -9.32825755292829    0.96959865324750
C          -5.13154429928672  -10.04501822964373    0.22666461699898
C          -5.32101789741795  -11.46467739812112    0.24268910886293
C          -4.83764488665758  -12.37250107608372    1.17661285398671
F          -4.10897067590096  -11.94507935511550    2.22601756541014
C          -5.09215163885645  -13.75362258783236    1.13577614414955
F          -4.62796625739894  -14.46046880708504    2.18665284430934
C          -5.81311360301212  -14.38085884733312    0.13081641421882
C          -6.33955604128674  -13.47395046470723   -0.82240676118254
C          -6.11030513713561  -12.07076910691642   -0.76529065029279
N          -6.75856491033508  -11.51979512422054   -1.80039992391386
N          -7.31856958567822  -12.52868316968055   -2.40738723473757
N          -7.11083091314789  -13.70709346706222   -1.89310637699865
C          -8.11490679223229  -12.35450683378012   -3.58245917837326
C          -6.12933184520117  -15.78385681768903    0.01202988155986
S          -7.68656175726314  -16.15053386584908   -0.67322976832715
C          -7.38904726417704  -17.85710875152811   -0.55576415093399
C          -6.13070150764158  -18.11132636624694   -0.04143469083205
C          -5.41709222391914  -16.93673228262807    0.28356112427689
C          -3.99359260572742  -17.00442273464928    0.74723531107958
C          -3.66325092008609  -18.38002583611891    1.31843086703869
C          -4.05646213526052  -19.47044912923023    0.31852026781066
C          -3.54999672876316  -20.80920068814383    0.78518459337190
O          -4.22447204755756  -21.77415177076339    1.00391168070165
C          -5.57171283772913  -19.48573657548149    0.13261941058686
C          -8.40414885352748  -18.74631666701191   -1.00850517349868
C          -9.51804930612619  -18.37531120852735   -1.74017877656202
C         -10.34315067910334  -19.46044358302035   -2.03222734968679
C          -9.86366436458800  -20.66677630983548   -1.50839109759518
S          -8.39039500282718  -20.46929467821914   -0.66921039649163
C         -10.77521605115673  -21.70384008501653   -1.86346392392178
C         -11.82128106289966  -21.14519046609660   -2.60753065648408
C         -11.58617756443889  -19.72150858774116   -2.74897252632022
C         -12.34586808000778  -18.81119692216424   -3.42484337270646
C         -11.98696864324020  -17.45022311018705   -3.51204512417989
N         -11.69848328033350  -16.34308821910924   -3.59673520872177
C         -13.53295397985606  -19.17171530013125   -4.09573743751047
N         -14.49872803338777  -19.45789195120491   -4.64398924676351
C         -12.77423803833449  -22.10560625925143   -3.00034746880818
C         -12.43898601871068  -23.34703991006895   -2.55487313790043
S         -10.96034146224025  -23.38598222459942   -1.64913295856111
H          -9.68942359369402    0.74429329630988   -3.10028169416181
H         -11.38361356904141   -3.86472333349429   -3.77154495085329
H          -7.71400316773587   -0.11998716932943   -1.97012956834623
H          -9.36360608545998   -4.78016522894762   -2.61973136676301
H          -4.08672829928244   -3.42682319218012    0.48484618235011
H          -1.82118284988803   -5.19907803826867    2.66712567196905
H          -2.82663560455868   -3.86158230499174    2.10738188133852
H          -0.74001836281783   -5.33523421916136    0.42599735519851
H          -0.56420627059916   -3.72123976220468    1.12692496298998
H          -1.74640408381235   -4.00302718372135   -0.14838149777426
H          -2.40365066367175   -7.56789627053295    2.12793949045533
H          -3.58090691210894   -9.81132746558223    1.65867417631137
H          -5.75691476599821   -9.52858427432298   -0.49049965500344
H          -8.48878983941074  -11.33336073888092   -3.59675731142507
H          -8.93555890338391  -13.06948540660697   -3.56238311074991
H          -7.51200585560363  -12.53168126093117   -4.47508200501242
H          -3.78830050776791  -16.25459405265726    1.50536868354968
H          -3.34105526761385  -16.79432563032913   -0.10769050832550
H          -4.21462101017673  -18.53167456114021    2.24823085009155
H          -2.59642996850764  -18.43440685592238    1.54224845381761
H          -3.56036214559839  -19.25428294025089   -0.63596315597906
H          -2.45076251834002  -20.83197860696190    0.92896081499421
H          -6.02808465127506  -19.96178540961833    1.00743041192344
H          -5.82588667596077  -20.10690364397247   -0.73044735931246
H          -9.69601507859895  -17.35955842092884   -2.04341144696667
H         -13.65627247529291  -21.89558520291676   -3.57723216276583
H         -12.97282314871037  -24.26459728069014   -2.70037814917096
