108
 SCF done       -196.159634129477          0.000385536024
C         -10.81925203676747    0.29947988109335   -0.19875108978882
C         -12.15486022525926    0.43880764687429   -0.45516377643187
F         -12.67105894276592    1.65236041265918   -0.70282572969168
C         -13.00388453160696   -0.68380658569379   -0.47193051975390
F         -14.30997099996094   -0.51959961341027   -0.73786391911786
C         -12.50637834203026   -1.93331820105410   -0.23142805948687
C         -11.13372630472609   -2.10956226380224    0.02317296078976
C         -10.27232554112141   -0.97645140226839    0.04016875434922
C          -8.88595460420357   -1.13917752327853    0.27287847876349
C          -8.37481472591533   -2.39926874179536    0.43488320322697
C          -9.23894986762747   -3.52664854019872    0.37974438168773
C         -10.58651940740924   -3.39624823321145    0.21753045592872
C          -8.43525443372746   -4.76453387199286    0.44553260308403
O          -8.86426882831693   -5.90177761087792    0.46607581631440
C          -7.02833071064878   -4.32274537811084    0.54226711934400
C          -7.00461703109567   -2.87913819753685    0.62095044246136
C          -5.90049384331295   -2.07553454561505    0.75874764849541
C          -5.95426424487783   -0.66782075714910    0.81463171553938
N          -5.93378655815243    0.47868964811798    0.87567424950734
C          -4.56942320976308   -2.52778836352628    0.86624050411642
N          -3.45907530304577   -2.81333803009123    0.93787565077654
C          -5.94140790731115   -5.16301916481255    0.66975525726788
C          -5.84304429052031   -6.49616925292498    0.24150537256128
S          -4.67878507605388   -7.54760792462584    1.00893380548479
C          -5.14255642369204   -8.84392996465946   -0.00817364362188
C          -6.10605084209582   -8.52140926707096   -0.91760740825474
C          -6.62081696945304   -9.48898986752033   -1.92909901306577
C          -6.51295629196364   -7.16235616212999   -0.80371381498188
C          -7.39561731664606   -6.42771580103039   -1.64650953130541
C          -8.47931734935458   -6.85476993570246   -2.33773461735160
C          -9.46543650857666   -5.97500325685925   -2.87704253650319
C          -9.43281211998925   -4.62252543013221   -2.78354639484882
C         -10.47941876139539   -3.69762291663393   -3.05484547223795
S          -9.99039039778761   -2.04119776471419   -3.32435981979373
C         -11.61091941084682   -1.56774370509146   -3.62750322238332
C         -12.49160196439140   -2.59697429897063   -3.52632617772820
C         -13.96310567064677   -2.43967532761804   -3.72034543372163
C         -11.85945490490367   -3.82945016346317   -3.16644187575630
C         -12.65000610708759   -4.99711311230977   -2.86408863891731
C         -12.39149368274226   -5.89051614257292   -1.88716371466015
C         -13.22754743339911   -7.00734028407399   -1.60589034173695
C         -12.98152480500178   -7.85035597119502   -0.57616332421221
C         -13.64625284524482   -9.06700492120057   -0.24386421976522
S         -13.18372549182809   -9.82282949909375    1.25879724219503
C         -14.10434650762628  -11.22586175669444    0.89578943906325
C         -14.70959530931522  -11.15862772425933   -0.31842982807083
C         -15.56430000293260  -12.23389628280288   -0.89938415549895
C         -14.47866095819115   -9.90994031018938   -0.97303763669634
C         -15.01538985402463   -9.66051790732007   -2.28813578250844
C         -15.80003592921323   -8.62352768123682   -2.65629456248295
C         -16.17126155408607   -8.40739610131725   -4.01406227604687
C         -15.35058464170179   -8.75545874267792   -5.04333935942820
C         -13.98096474518889   -9.06137277293297   -4.86822035179983
C         -13.12945170273926   -9.64604256673307   -5.76484432263483
C         -11.67061142861491   -9.42076797741518   -5.67527246656964
O         -11.06444368981689   -8.90887958181084   -4.75738459319167
C         -11.12578267908921   -9.89919513238101   -6.96535657314870
C          -9.84496287196499   -9.84386460997137   -7.43234660560889
C          -9.55889828792478  -10.35239881749979   -8.71992312971850
C         -10.61196295489457  -10.90681281252948   -9.50352608617955
C         -10.32022854099206  -11.40903842246984  -10.78727354524930
C          -9.04210214631305  -11.36661767065943  -11.26965495575488
C          -8.00114439393848  -10.81971214660569  -10.49352062121298
C          -8.25277469675894  -10.32245367603799   -9.24546259465347
F          -6.75686666484628  -10.79074907528238  -10.99063875257785
F          -8.76646818430481  -11.84675958221346  -12.48949438440014
C         -11.92941835081365  -10.95561628800474   -8.99202945073394
C         -12.18066381444006  -10.46289901501884   -7.74031375882390
C         -13.40705755437030  -10.41908103247036   -6.94860889322551
C         -14.54662466542384  -11.14935011432268   -7.17952345422212
C         -15.54055693562323  -11.32375126756396   -6.19595193973812
N         -16.31969177114907  -11.54098976005301   -5.38068826575480
C         -14.78009919867482  -11.89688395645910   -8.34969441413133
N         -15.02057788431873  -12.49919261045091   -9.29710890261069
H         -10.18350946579278    1.17097113916793   -0.19138868338502
H         -13.16436732441204   -2.78800377271527   -0.24983152857385
H          -8.26275414346764   -0.26018754949620    0.29732403776121
H         -11.22953225124637   -4.26173711682497    0.21090875944146
H          -5.05467413482962   -4.77045790745755    1.15361422029435
H          -4.66770466858855   -9.79853242461547    0.11547881125020
H          -5.97370569651549  -10.36156357633798   -1.97760347197770
H          -6.66534672726563   -9.02227026938843   -2.91116152700267
H          -7.62342157004475   -9.82016733134559   -1.66104715174077
H          -7.20143325265071   -5.36272268793568   -1.63175194568125
H          -8.72733833497604   -7.90354046715558   -2.37563965169870
H         -10.33770529270038   -6.45368607056797   -3.29794720307757
H          -8.51414440253720   -4.13734579147491   -2.47675943885132
H         -11.82318525987889   -0.54433157086858   -3.86727931669172
H         -14.20691064023271   -1.39990258361046   -3.92080566930372
H         -14.50419756644419   -2.75674934805621   -2.83021109140964
H         -14.30445850137472   -3.04448227198443   -4.56023073016780
H         -13.57208402038200   -5.09305232037483   -3.42533841766973
H         -11.50408304428151   -5.78347048868922   -1.27946547298363
H         -14.06626598986624   -7.16435817850024   -2.26595367416283
H         -12.15529716931317   -7.60468597433729    0.08155055773279
H         -14.14289396465676  -12.02936727014097    1.60463618104504
H         -15.63850548941795  -13.07310361148132   -0.21313215745358
H         -15.14400894209681  -12.58736679314004   -1.84058960818619
H         -16.56449201275488  -11.85581159980950   -1.10594292860641
H         -14.84739301638609  -10.44907779957237   -3.01447697177171
H         -16.20284679175495   -7.95741108137901   -1.90373752108930
H         -17.13331020943772   -7.96024639219699   -4.21974578990287
H         -15.72746018645046   -8.70947811284940   -6.05692336066213
H         -13.49871882064574   -8.67060897442336   -3.97560324702729
H          -9.05773800449439   -9.41875805036547   -6.82831740513957
H         -11.10531600097453  -11.83350985139663  -11.39334601241452
H          -7.44446999328505   -9.90644812948083   -8.66462977479947
H         -12.70984692791429  -11.37669997076291   -9.60592395908629
