115
 SCF done       -220.329518956978          0.000601610075
C          -3.73153525915330    0.67653348099849    7.56038093513078
C          -3.64735040268047    0.47392340485826    8.90939490010902
F          -3.61859860735742    1.52080832628555    9.74761400156902
C          -3.59093471325991   -0.83091697278357    9.43611883499296
F          -3.50957903293571   -1.00060491058519   10.76471719401586
C          -3.62011872315062   -1.91647682057974    8.60618203122660
C          -3.70878422787030   -1.74050101919448    7.21203241273264
C          -3.76448112717652   -0.42125091402707    6.67752991690371
C          -3.85433645977805   -0.21955619538079    5.28021157536814
C          -3.89341459257398   -1.30411282806528    4.44518109827787
C          -3.84502075901575   -2.61744820634964    4.98992351902704
C          -3.75075843427776   -2.84501389073402    6.33126507668881
C          -3.93111628953471   -3.60018304771449    3.89042834902387
O          -3.90776589088578   -4.81169821593212    4.00944499304515
C          -4.07463873001388   -2.81750883041130    2.66016900086386
C          -3.98910121116117   -1.41230733896223    2.98992703033118
C          -3.95158722997753   -0.35426414431057    2.11486245272282
C          -3.95755625815904   -0.44269963386296    0.70769834551557
N          -3.93225653399882   -0.40684471115952   -0.44099499501879
C          -3.86464014327209    0.99378541833472    2.51677299597951
N          -3.80045642802839    2.11056011393039    2.77761928198160
C          -4.34743629430675   -3.30945370418674    1.40462855580029
C          -4.44791963137563   -4.62487550918690    0.94491683039488
S          -4.13495335722292   -6.06437045977896    1.87851820096829
C          -4.42336448646064   -7.06979032106712    0.49847046523145
C          -4.74464560531311   -6.31705818071044   -0.64050671503516
C          -4.78008726954357   -4.95328818409219   -0.38567799717157
C          -5.12757476087526   -3.91548321858660   -1.42375644787995
N          -6.06203738485827   -2.94248057531401   -0.87187285972934
C          -5.65732809940138   -4.59156757312095   -2.69909238366540
C          -4.81784814422656   -5.80485779996031   -3.06431548438732
C          -4.98728380526485   -6.90667818394191   -2.00558793958594
N          -4.12451963786261   -8.05800628608726   -2.23384226253115
C          -4.38809512270040   -8.47818907790493    0.59283361076865
C          -3.91694734483958   -9.15699268742999    1.67482847424302
C          -3.97908089439969  -10.56310607160170    1.78728888227392
S          -5.10756943349069  -11.40342574785158    0.76917888419152
C          -4.81530749253852  -12.93045624154879    1.52469019522717
C          -3.82326746413863  -12.80519567747889    2.51726659840593
C          -3.33477320099882  -11.46518795159456    2.65782326499996
C          -2.27871047321271  -11.22628847023595    3.57700913244387
C          -1.59707522603229   -9.89693994701668    3.71029548184701
F          -2.34849770866567   -8.96965373959260    4.33619151731228
F          -0.46273402516746   -9.97444114602351    4.42564499941140
F          -1.23479683719186   -9.36629374819947    2.52697434669423
C          -1.81702855053423  -12.25898864538378    4.35656043830768
C          -2.33650696642591  -13.55078567714404    4.26158191828717
C          -3.31847355084204  -13.85119018341269    3.34333970204627
O          -3.83589816126045  -15.08450903314125    3.16703470770823
C          -3.36881924383519  -16.15776413300496    3.95872010208657
C          -5.54717956363000  -14.07552107428593    1.16217387299286
C          -6.55021894061930  -14.10220138071208    0.24035659159673
C          -7.30391635866706  -15.26081364782130   -0.04531408027740
C          -7.15693580402822  -16.53753469016474    0.48276297282649
C          -8.11795575396296  -17.41967285916303    0.00744907806907
C          -9.01844487708252  -16.82485567532019   -0.89806036389606
S          -8.66131132505118  -15.17417995330340   -1.16485606214320
C          -9.96224809770311  -17.79929504780421   -1.29151520087732
C          -9.66149014408697  -19.01207834927408   -0.64415752891853
C          -8.49147450271304  -18.81342105144831    0.19181725971749
C          -7.87187003654561  -19.72514369679731    0.99829588966205
C          -6.75018073129248  -19.38242054950611    1.78018375000329
N          -5.84153730531099  -19.09812072780808    2.42128970170764
C          -8.31581413760172  -21.05892302447126    1.10674140095637
N          -8.67351288124401  -22.14481611874583    1.19723540060311
C         -10.56075846662575  -20.03269611029345   -0.95310454367342
C         -11.55036533186536  -19.61460412039585   -1.82347856276213
S         -11.35339682027943  -17.92157301006177   -2.27759168634332
C         -12.64511845935490  -20.37096275184663   -2.33324974466012
C         -13.61273165965625  -19.82973246756078   -3.14053755563630
C         -14.71333612040480  -20.52202944490962   -3.64993183841676
C         -14.91377857359669  -21.94561778462104   -3.33989346736240
C         -14.08547353124576  -22.67939571398640   -2.56795966705806
S         -12.66685182172438  -22.06114834160656   -1.82771472690727
C         -16.11294021747999  -22.30298180204398   -4.00921882241050
C         -16.63238724371652  -21.19317116372956   -4.68523720309690
C         -17.82443789762848  -21.52174480620183   -5.37312605421596
C         -18.16636997643894  -22.82453481444875   -5.20153646864984
S         -17.06771367080707  -23.71698131312415   -4.20510499184024
C         -15.76163796344373  -20.06962342874859   -4.46215894835389
C         -15.89560248036346  -18.72709227987081   -4.94794850440062
C         -16.92341524331249  -18.22764381223745   -5.63584143371290
H          -3.77293781313991    1.68275063080953    7.17345214822389
H          -3.57642136614208   -2.90986271558214    9.02452411618285
H          -3.89660315574013    0.79142071290774    4.90875375991315
H          -3.71251855322520   -3.85309854496442    6.71515847367192
H          -4.56499059090550   -2.57799164900853    0.63789243584216
H          -4.21017932224109   -3.36098192551459   -1.66782547959992
H          -6.96777032963101   -3.37127287299837   -0.71410001482539
H          -6.18180713810910   -2.16664818151411   -1.51222371614029
H          -5.65758143276432   -3.86650513554131   -3.51577222615816
H          -6.69088931916149   -4.90946088819048   -2.52964616629240
H          -3.76364008820714   -5.51860783976553   -3.11788360227344
H          -5.11539903741512   -6.19190510160842   -4.04205744662713
H          -6.02141344253065   -7.28179179143212   -2.04766970713221
H          -3.15038823567468   -7.78983498598438   -2.13936141457032
H          -4.26133207244544   -8.40988926137852   -3.17522633156228
H          -4.73055611199252   -9.02282641946003   -0.27637527251524
H          -3.50738746939109   -8.58578396041047    2.49204765842524
H          -1.01889566172783  -12.08089948454571    5.05988700683076
H          -1.93208987297434  -14.31095541294018    4.90803547266644
H          -3.55822069233061  -15.98081929650541    5.02084848331580
H          -2.30206385170607  -16.33567595679826    3.79833928679373
H          -3.93467987538736  -17.02884165353794    3.63064377092333
H          -5.29509586193291  -14.97952548486041    1.68891093022360
H          -6.81642999438771  -13.19651621891360   -0.28858146345068
H          -6.38368567289450  -16.79657819936011    1.18092931942142
H         -10.51142657675452  -21.03319479987186   -0.56256309640840
H         -13.50352937123960  -18.78134944307884   -3.38738204645815
H         -14.25895396948670  -23.72271165454965   -2.35593560149777
H         -18.40835371620479  -20.84835221369148   -5.97241908835222
H         -19.01668469633193  -23.33754174564463   -5.60685740079557
H         -15.06727030022485  -18.07100446167334   -4.71123996735968
H         -17.78618625394691  -18.81291901644850   -5.89459054770036
H         -16.93115098024991  -17.20030890888047   -5.95644390234364
