80
 SCF done       -152.888416721036          0.000534203233
C          -2.70001652205687   -0.75538961996165   -4.54356316422708
C          -2.31414716371203   -1.02582786837325   -3.26672491564508
C          -2.22901382945411    0.15035001265140   -2.49639046919734
C          -2.56111105683186    1.29497165565113   -3.23028108724528
S          -2.97209010211890    0.93042646947077   -4.84638609526104
C          -2.44966494118038    2.43088058528054   -2.37681583779858
C          -2.04465172606568    1.99283896601794   -1.11186515931311
C          -1.89806160282764    0.54500360847112   -1.14064560754748
C          -1.53954178733938   -0.26230764265360   -0.09695040542630
C          -1.26373863099736    0.26051688394979    1.18180210462058
N          -1.04657504135264    0.69436338077712    2.22199624122436
C          -1.43205779253381   -1.66109332774152   -0.22773228724675
N          -1.34232870281035   -2.80040825174286   -0.32793787353284
C          -1.89523800734226    3.03479696039769   -0.19011607591977
C          -2.19247603059486    4.26359685556463   -0.74184603112513
S          -2.65634360644992    4.12386765422339   -2.43507233312135
C          -2.17204422124393    5.56080678587442   -0.14704829892289
S          -2.31154383203560    6.95661958912641   -1.18047645549378
C          -2.20112968586428    8.03165986194846    0.17639957628560
C          -2.09102423187225    7.33788301403193    1.35244721702357
C          -2.06138388015739    5.93532860858173    1.17824046725237
C          -1.89104244243205    4.98529120968602    2.32331313640623
C          -2.01391112875950    5.68285523394076    3.68798929144497
C          -3.40513702720694    5.88983381372452    4.02400105538603
N          -4.50452843200216    6.04950121862254    4.29036515472221
C          -1.28243438799311    7.04237421119321    3.68058561173025
C           0.09120133439107    6.86463559941074    3.27001923969089
N           1.16855315574525    6.74368183669994    2.90796102050004
C          -1.97614293224982    7.99017122593754    2.69334280562160
C          -2.33377332685000    9.46747857774220   -0.02462703030918
C          -1.53919885176318   10.19534638356778   -0.89653322034452
O          -0.41676021307417    9.67032285448192   -1.47469716237725
C           0.43864503267457    8.84959640498155   -0.70096175570653
C          -1.83896095192998   11.56428034586549   -1.22071594152277
O          -1.18472456575564   12.29158902669883   -2.13828629745310
C          -0.28735436931796   11.74408994061378   -3.08063843504929
C          -2.88467689311149   12.22739403714007   -0.57874511709856
C          -3.65012939506522   11.52589324642080    0.37598355242964
C          -3.38468356417905   10.14045339482812    0.63940564172736
N          -4.22532720373313    9.62549318600855    1.53409543178799
S          -5.23579154636985   10.78819302905559    2.01168347837083
N          -4.65827600547876   11.98694011949223    1.11052270995787
C          -3.21538423243413   13.61737805974183   -0.86545743400245
N          -4.50639625913948   13.97363169232675   -0.78931890773205
C          -4.78839517351844   15.22736165002766   -1.03469899080600
C          -3.77403829804822   16.13520805025110   -1.40273855008665
N          -2.51437253925358   15.69538769058605   -1.43534264848839
N          -2.23603981379744   14.47021369898913   -1.15538447561579
C          -4.01816288093906   17.52730269566582   -1.74106990355745
C          -2.97599475078242   18.36405831018575   -2.09829782404251
C          -3.16581786222623   19.71309813470251   -2.42945873177590
C          -4.40787036695988   20.29535717058025   -2.41963348191009
C          -5.48803045063652   19.48170976039704   -2.06314155325334
C          -5.30630237992882   18.10348367697400   -1.72438091590961
N          -6.51969561760076   17.60679875025416   -1.43295965272206
N          -7.33062346088669   18.61875228421958   -1.59154026935490
N          -6.80111405240076   19.74892307884918   -1.95924232377390
C          -8.73816722487976   18.49022596393551   -1.36869505216132
H          -2.84714931784105   -1.44825087459978   -5.34755265382677
H          -2.10314142272000   -2.01482244817583   -2.90294165974016
H          -1.55978673194223    2.89011447520431    0.81702705709042
H          -0.89814493277952    4.52676705483581    2.26054167037007
H          -2.63511751061867    4.18607806218318    2.26066265203927
H          -1.58273595213923    5.03108047799101    4.45839595663239
H          -1.29075605750911    7.47719925545211    4.68720477228831
H          -1.42212222207215    8.92892253931938    2.60938016355306
H          -2.97836223814058    8.23087507205211    3.06052013404460
H           0.25011281676175    7.78920298834786   -0.88070207613398
H           0.34458519202989    9.05746286292556    0.36638909790157
H           1.45335726502304    9.08511122541462   -1.02528006205255
H          -0.16047435381254   12.52974765001801   -3.82590142257600
H          -0.68754052840462   10.84630739767657   -3.55453173565964
H           0.68076764810969   11.51606398351076   -2.63065620561771
H          -5.82203062195358   15.53404177857157   -0.95657957526433
H          -1.98169742877175   17.94561114912016   -2.11690085447175
H          -2.30238001798292   20.30308912369036   -2.69812376910622
H          -4.56519067838171   21.33147378083158   -2.67123399763937
H          -9.15096483714033   17.73232658433451   -2.03513826083759
H          -9.19788232753280   19.45558320877696   -1.56581662108109
H          -8.92369426943575   18.18764490704231   -0.33761857431270
