108
 SCF done       -206.069055328542          0.000507256222
C          -7.30765034482124    2.01969852932899   -2.09748602020267
C          -6.40523866619914    2.79189128989996   -2.77369483996227
F          -6.69139815150463    4.07000696815809   -3.05844018550669
C          -5.16643340126123    2.25771077038706   -3.17952283918383
F          -4.29947021133444    3.03746046111193   -3.84206181647825
C          -4.84685739365218    0.95792617101930   -2.90337760768762
C          -5.75585766898451    0.13665486191890   -2.20895092635119
C          -7.00856084657743    0.67569809156126   -1.79669131178992
C          -7.93579061167858   -0.12979718667612   -1.09606236448110
C          -7.61791506342778   -1.43215673720378   -0.81366845981058
C          -6.36718667750415   -1.96310587393029   -1.23329409154213
C          -5.45419853717939   -1.21185307250354   -1.91472809835548
C          -6.26986454189928   -3.37994969042583   -0.82656915302636
O          -5.36385606238610   -4.13777779948073   -1.10670596156863
C          -7.54266486372151   -3.68106047859853   -0.12831735405746
C          -8.35366448287116   -2.48137007098030   -0.11379921455816
C          -9.56390799894298   -2.32146667617278    0.51147483101855
C         -10.23661861896353   -3.32171545119194    1.24380660162018
N         -10.84277918015640   -4.07512927544595    1.86348815036405
C         -10.29446544296569   -1.11572109307240    0.52035406667420
N         -10.93542189914093   -0.16380148422031    0.55848658247999
C          -7.94067304566603   -4.93145396234216    0.24921828613959
C          -7.09509291698313   -6.07765275304473    0.35714331025957
C          -5.76359007339390   -5.98378591223435    0.84430288662761
O          -5.44301565747056   -4.81971642745046    1.43455646140379
C          -4.28451610285981   -4.68994621071958    2.23193036790253
C          -4.92257237015732   -7.09490746760620    0.73109220839471
O          -3.56261121178902   -6.93862287381965    0.94374428898314
C          -2.86199243559164   -6.64643754358220   -0.25283353589840
C          -5.41694873396858   -8.34529510697614    0.31094280539089
C          -6.77448192292739   -8.43225640899376   -0.05964296631619
C          -7.58386893713611   -7.33181052649921   -0.03725937709566
C          -4.63907865476247   -9.54247339622449    0.24524461681397
C          -3.47888490067068   -9.90474272974632    0.87345247768445
C          -2.90529270864326  -11.20718084589241    0.74887470033572
C          -1.81962483082278  -11.42592947446171    1.53118474023743
C          -1.46651079617638  -10.30846130929722    2.32755870650759
S          -2.54253508901549   -8.96281341543734    2.01488368116010
C          -0.42630091632394  -10.19913449512300    3.22451483655573
C           0.54287094613120  -11.17564300742399    3.56294626450261
C           1.43863979647141  -10.74904867328836    4.48743232975132
C           1.23572990718933   -9.40965740027019    4.93883927864755
S          -0.13539187362072   -8.71224675220557    4.10259551373347
C           1.96653636713637   -8.83891408647384    5.94531999497369
C           1.81630206395047   -7.57587702752392    6.59620659800648
C           1.20208806429212   -6.44702147307935    6.01405473820706
O           0.90639518995024   -6.45306537227198    4.65987440216939
C           2.04157280223966   -6.35092802668114    3.82465184248677
C           0.94001975565354   -5.30480285114157    6.77239824893045
O           0.27896176486249   -4.20907669482737    6.34798918648155
C          -0.51695965390873   -4.23038938948315    5.18010360780693
C           1.37572700545597   -5.24712866935007    8.12385069545472
C           2.09735641989854   -6.33005977089980    8.64685289942561
C           2.31328866264562   -7.45842199534536    7.90816602190973
C           1.16327290172289   -4.04940158659503    8.87177292621785
C           1.09999616580120   -3.88967629067718   10.22224329863412
C           1.32550097787752   -2.54592943687526   10.81583539256649
O           1.36784471781004   -1.48780394359180   10.23082015870205
C           1.54716396397280   -2.78995627006473   12.25773675820551
C           1.91520200656600   -1.90691533752855   13.23074785310387
C           2.10641343094507   -2.37768760844142   14.54954077676253
C           1.91466942155111   -3.76106763655063   14.83259178269532
C           2.11718647829324   -4.22547909936117   16.14768195177839
C           2.48918255684222   -3.35742629902269   17.13541132206837
C           2.67597030087995   -1.98944838652275   16.85492418638880
C           2.48854408589038   -1.50828402769858   15.58953284594624
F           3.04233506829413   -1.16067303015631   17.84320192406177
F           2.68167631228479   -3.80181677963208   18.38532109552411
C           1.52332407551325   -4.65066787482081   13.80558783200947
C           1.33677202799668   -4.17035037101798   12.53717826375146
C           0.91605305763583   -4.83225132290125   11.30423412506192
C           0.24054267441494   -6.02417701072081   11.23832095150522
C          -0.38961252025012   -6.50401437524640   10.07196049139294
N          -0.97156493128236   -6.91570946420932    9.17225649187792
C           0.02470875591614   -6.86249378628933   12.34949740754344
N          -0.15352162024983   -7.58705669804372   13.22242852183850
H          -8.25128930073774    2.44468866961855   -1.79289271286743
H          -3.89444518464836    0.56369899239226   -3.22169361738791
H          -8.87772332506036    0.30546639158496   -0.80415993682181
H          -4.51271254809027   -1.63974754480858   -2.22448794186489
H          -8.99552640098388   -5.10964858457882    0.41851104147247
H          -4.45850144839583   -3.80142137601241    2.84002983282396
H          -3.39154100839773   -4.53919749667973    1.62204481803896
H          -4.13898114880539   -5.55789639850594    2.87764448802729
H          -3.26780442049580   -5.74953474413584   -0.73064008582924
H          -2.91907172798405   -7.48174945986879   -0.95865072889061
H          -1.82551838996648   -6.48450069642396    0.03780072442961
H          -7.16812124203348   -9.38784924338169   -0.37114045182836
H          -8.60944148589996   -7.40382512251000   -0.36697427117136
H          -5.09387496329923  -10.33182900357229   -0.34322765876834
H          -3.33116062558328  -11.93661469697336    0.08206126004323
H          -1.26797233300845  -12.34861456497365    1.55969310647598
H           0.54994057946753  -12.15435006820052    3.11744403506087
H           2.24328255519945  -11.34781721120274    4.87725973945000
H           2.70610368788579   -9.49163735709584    6.39549299624163
H           1.67059192430724   -6.43303423578691    2.80465372357484
H           2.76227636686673   -7.15164393697267    4.01602264907128
H           2.54091123070944   -5.38496579423418    3.95992585202327
H           0.08736086978673   -4.12941278143525    4.27578436274185
H          -1.17458121703822   -3.36547118521861    5.27143650363399
H          -1.11134741362091   -5.14285837315907    5.11760011263706
H           2.50799920581041   -6.25095359507057    9.64223558994437
H           2.84814546839101   -8.29189413001366    8.33769717110556
H           1.10866186816860   -3.13218279953598    8.29494096108394
H           2.06026714681810   -0.86291468364306   12.99824968147301
H           1.97446544577899   -5.26919247032172   16.38037025904099
H           2.63573958577030   -0.45825092145818   15.39080444302234
H           1.39025309570739   -5.69355916220668   14.04576758461221
