110
 SCF done       -210.358334961090          0.000595602432
C           2.60401609096494    1.13628941005934    1.85230616226745
C           3.86183468024260    1.18027616933723    2.38448435470243
F           4.45097635983686    2.35946443988802    2.62453615285122
C           4.55463827974267   -0.00906850211601    2.68733133523923
F           5.78705538250129    0.06423504927375    3.20909846535638
C           3.97951442202705   -1.22655797050121    2.45368236085287
C           2.68413452985798   -1.30521753826916    1.90645296800608
C           1.98286260384632   -0.10338280264521    1.59846762035427
C           0.68342010366711   -0.15767949747503    1.04519147692655
C           0.10427614388772   -1.37661211766447    0.80620865792427
C           0.80870732697465   -2.57036147860229    1.12266598348593
C           2.06400344897387   -2.54982877282322    1.65834262571303
C          -0.02292393185574   -3.74574170305258    0.78657673487323
O           0.28925104837654   -4.90461288520350    0.95159216026739
C          -1.30930293534696   -3.19092574695451    0.29256447294817
C          -1.19206340347055   -1.74226545735712    0.24716657487546
C          -2.09711947079513   -0.87134685896547   -0.29971468814571
C          -3.29928601796495   -1.23885772653353   -0.94205722214026
N          -4.28041254834439   -1.44431215541976   -1.50257591081267
C          -1.92387930127015    0.52842180554909   -0.32878757281592
N          -1.84080987399674    1.67241591490740   -0.37733317868663
C          -2.47985533933148   -3.86712040119808    0.12246439332997
C          -2.71188961073543   -5.27639562495596    0.03565438262073
C          -4.00257990857364   -5.75588449812999    0.40308171851006
O          -4.80867840613237   -4.80903945566494    0.92420402404566
C          -6.09920031949521   -5.08689737316645    1.42684859562337
C          -4.30777785067871   -7.11045929475166    0.23775622056365
O          -5.58739679975981   -7.57148124380215    0.51620620116980
C          -6.35392977629057   -7.88309628561182   -0.63045440581975
C          -3.32415395494804   -8.00466959315688   -0.22959211072418
C          -2.07873668216683   -7.50426029558020   -0.62030995181625
C          -1.78167519538870   -6.17101829119927   -0.49941806651238
C          -3.57813400043045   -9.43666275357574   -0.29723938387740
C          -4.32705958727408  -10.10108053227384    0.63250549677689
C          -4.58480693820096  -11.47677199164139    0.62500875709274
C          -4.12972029455549  -12.31839975954209   -0.49130097438956
C          -3.34323898344299  -11.87784162557671   -1.49750823272465
S          -2.78672695236798  -10.26210374926593   -1.63652102360775
C          -4.68244178490022  -13.60441257896166   -0.24561516373637
C          -5.42358774802620  -13.57448887875350    0.93620033177916
C          -5.99469553605622  -14.83040662100998    1.23813426746520
C          -5.68312421427922  -15.75894183852123    0.29659377578080
S          -4.68629550540842  -15.15637967195084   -0.98528433664411
C          -5.34731674314814  -12.25554166605601    1.50865536579914
C          -5.96415966401084  -11.89367298340864    2.73856275205159
C          -5.58238367349533  -10.86774861402928    3.53484749377755
C          -6.21781575255775  -10.45829050447265    4.75560129538062
C          -5.52763584834687   -9.54755133372048    5.60498291752785
O          -4.31318835118997   -9.16780061978119    5.13988489773276
C          -3.49843969354716   -8.23934292719263    5.82251283715455
C          -6.12902837916664   -9.12720004332582    6.79060068071751
O          -5.48081744534285   -8.26726723779226    7.65807662224989
C          -5.06629276638873   -8.85399003293985    8.87811274467676
C          -7.42098547097771   -9.58007017455505    7.13614683131879
C          -8.08642557502403  -10.46885673014705    6.28430493011977
C          -7.49455524076191  -10.89354761275583    5.12421147976780
C          -8.07274973955224   -9.03041528035410    8.29020498548104
C          -9.02884959990017   -9.59901924100770    9.07028062527813
C          -9.90267131741324   -8.74612631946280    9.91845351382080
O          -9.73503655891545   -7.58104025287470   10.19601787752158
C         -11.03784294707104   -9.61449402828597   10.29809277580153
C         -12.18230983899544   -9.28699705407426   10.96533122037325
C         -13.15754607421605  -10.28528264286729   11.18764254666058
C         -12.92594382728739  -11.60825965619812   10.71087229003032
C         -13.90690667900061  -12.59644379560199   10.92871976579254
C         -15.06187338772806  -12.28662385759889   11.59016307710028
C         -15.28919729217263  -10.97856265155046   12.06236443179156
C         -14.35754629150007   -9.99795406484722   11.86658326744002
F         -16.43186099233713  -10.70280638607741   12.70620228037455
F         -15.99329160354317  -13.22772888149755   11.79559598851705
C         -11.72623695342725  -11.92057857558625   10.03138564023017
C         -10.79388401628879  -10.93794820583522    9.83145733016192
C          -9.47967939010906  -10.96945205131824    9.19600235615447
C          -8.72269030462124  -12.09289557613656    8.98598441841958
C          -7.35977052244460  -12.05066860500468    8.62859582199324
N          -6.23360928534717  -12.06669481895059    8.40620442767486
C          -9.19357963251292  -13.40454646714022    9.19108313067157
N          -9.54261729802892  -14.49001834523592    9.32593235921139
H           2.08814469244762    2.05608464351275    1.62486436938772
H           4.52268699328622   -2.12782146894816    2.69120774948207
H           0.17643505913739    0.76869139128606    0.82893811604057
H           2.57663124242754   -3.47160503531873    1.88807224904851
H          -3.38616624387775   -3.27515538925755    0.07421468875502
H          -6.80238851253899   -5.33027537276990    0.62780328445371
H          -6.41394743958708   -4.16080369154526    1.90820694046886
H          -6.08222354078709   -5.89679252741787    2.15742194958233
H          -5.87794708900262   -8.65610820818724   -1.24060248839025
H          -6.51653521049526   -6.99436064867992   -1.25060686051425
H          -7.30851118980197   -8.25173318741018   -0.26020794338949
H          -1.33593388997916   -8.18653128469721   -1.00381750871003
H          -0.82517914787526   -5.80480101226769   -0.82880321716925
H          -4.76819154582431   -9.50587548742757    1.41721274568258
H          -2.99927506813851  -12.52238828906010   -2.29116489710716
H          -6.59999732836321  -15.04199615408319    2.10085120560460
H          -5.97805128917266  -16.78969878206773    0.26729996300248
H          -6.76407362574876  -12.55000625964577    3.05629604202258
H          -4.68975553297255  -10.31681409091245    3.28505939963275
H          -2.66649136858312   -8.04690599349344    5.14406497074536
H          -3.11032098571487   -8.65297599818726    6.75586671409975
H          -4.02811173459098   -7.30820442704129    6.02916866056266
H          -4.53681981167867   -8.07187869578575    9.41922307512616
H          -4.39891459105123   -9.70351256554512    8.70056873567055
H          -5.91689837870334   -9.20055023357984    9.47261915837939
H          -9.09558391582803  -10.77138910028758    6.52123548300653
H          -8.03418874608414  -11.55650293890282    4.46721671042804
H          -7.83975145202057   -7.99342183653125    8.51632791715518
H         -12.34341816437613   -8.27939036973003   11.31716543583407
H         -13.74716735168661  -13.60365072413850   10.57678128629898
H         -14.54656931262093   -9.00144011442579   12.23392964640120
H         -11.57787490406598  -12.92773810852117    9.67532138950427
