88
 SCF done       -176.028433811678          0.000829487370
C         -10.82005583688662    7.17882634695502   -1.03644039144639
C         -10.15687259974962    6.85857975112482   -2.18180176777377
C          -8.83897945524114    6.44316706875164   -1.91037563022348
C          -8.54458518546485    6.46310474288611   -0.54163482845387
S          -9.86751379282710    6.98667706467868    0.39905225994596
C          -7.19974564762055    6.03108382434233   -0.35926714211846
C          -6.65286245375561    5.74207937836827   -1.61660146111743
C          -7.66676298064745    5.99046963459490   -2.63484369585124
C          -7.53326108521175    5.82461765910224   -3.98272756376890
C          -6.33279051424540    5.37088169843459   -4.56762693162653
N          -5.35881464474368    5.00108109215588   -5.04739533987719
C          -8.58631454960381    6.09108945894690   -4.88220458646923
N          -9.43824702106091    6.30431086632782   -5.61956125619919
C          -5.32910021108718    5.30687662979022   -1.54656307377522
C          -4.86810788318090    5.25946477825489   -0.24373876151611
S          -6.09579816154205    5.76844321045622    0.91160528069101
C          -3.57188203248785    4.87028788553775    0.21096167712472
C          -3.24686161695910    4.82291793738462    1.54367675203794
C          -2.00059955106060    4.46428518337463    2.05855463247045
C          -0.93313877833376    3.99973424095515    1.15868249457633
C          -1.03387257308499    3.97349614229917   -0.18851906329508
S          -2.42527846566297    4.46863958774996   -1.05830560643496
C           0.14011652456614    3.61377740466193    2.00659014733859
C          -0.22003150425332    3.82199358667838    3.33726728000094
C           0.80893904950317    3.46084139068565    4.23420356789398
C           1.90069282029129    2.99448200101042    3.57338868927856
S           1.72997977205324    2.97827570430103    1.84934977869431
C          -1.54838828191515    4.37706327625765    3.38774964875804
C          -2.16796622485932    4.73971051488524    4.61043760266677
C          -3.25013063625621    5.53921121160000    4.76975513543225
C          -3.86017671681226    5.88157963538027    6.01459746773155
C          -3.46612138111227    5.51662220039597    7.29914041514404
C          -2.38515863200695    4.73623115227662    7.69689316174773
N          -1.50081029604414    4.09842152679780    8.06425326356698
S          -4.50493803980345    6.17418904964070    8.53442657343848
C          -5.49687007525930    6.95579226879628    7.34717766559836
C          -5.02878660225349    6.70372258445732    6.06281045664338
C          -5.64317580066480    7.14979489116060    4.88376382023747
N          -6.10140698052060    7.45125770857901    3.87389360872204
C          -6.60314395354269    7.75759471953085    7.72813142046171
C          -7.14990539366512    7.90524785304973    8.99733302558165
C          -8.18595730008292    8.85908209696155    9.04705260404068
O          -8.92384241585213    9.19080329989010   10.12681939746447
C          -8.43379364248136    8.77333237993488   11.38832115391141
C          -8.11330341560900    7.29178382795308   11.41901974121134
S          -6.64361625993791    6.96865212590608   10.38901831048949
C          -8.45857835999827    9.43503683443359    7.80434163726054
S          -7.43412431795367    8.75030637822094    6.57245122542252
C          -9.41923630480377   10.38987196968435    7.41577864379094
C         -10.13391535652406   11.30629047117239    8.13222909873322
C         -11.35695746800001   11.88555674928916    7.50262097845747
O         -11.69450569382171   11.77361985853436    6.34672064114082
C         -12.07260083790120   12.56923999663532    8.59576078275581
C         -13.28993899163006   13.18587584930360    8.57318293268113
C         -13.78858025810955   13.77097953823327    9.75900436327412
C         -13.01174192798114   13.69984427811804   10.95180082462142
C         -13.51499167170987   14.28262919843112   12.13083736262205
C         -14.73232807757721   14.90477851837665   12.10554629328854
C         -15.51052126893574   14.98634723365922   10.94298601792061
C         -15.03746095835843   14.42434784296581    9.78975570851000
F         -15.21343924667366   15.46303981937857   13.23084778785095
C         -11.75031298870739   13.05885288652653   10.94348211034758
C         -11.28558402900290   12.50618276661537    9.78137930481244
C         -10.02558773361721   11.83619421248042    9.46591690377602
C          -8.88709025039060   11.90249281272632   10.23043610947073
C          -7.61845689795726   11.50522593833564    9.77344101427114
N          -6.56972294580945   11.17828345330861    9.43769926184324
C          -8.84096649385478   12.40937146373932   11.54349440153236
N          -8.74530661941065   12.75797342692312   12.63341760780843
H         -11.82962197789922    7.52441642871403   -0.93796334055303
H         -10.59291309865288    6.91909666340510   -3.16213386730315
H          -4.72430962725042    5.03505669824195   -2.39288878057264
H          -4.04426725422633    5.06269823120245    2.23196257139118
H          -0.22744575620888    3.63973270555639   -0.82240403224797
H           0.74856892743629    3.53624886912105    5.30482931823254
H           2.82478836323129    2.64860411555161    3.99363753107922
H          -1.68109541467800    4.34958234591004    5.49401036028530
H          -3.71092900320441    6.00697235668345    3.91300382625986
H          -9.23433162267223    9.01424424696085   12.09266852460969
H          -7.53796435996783    9.35291074926729   11.64903371491403
H          -8.94639906606526    6.70139272465792   11.03623876590369
H          -7.85666802616486    6.96770424654415   12.42468681209855
H          -9.67265424066631   10.36591673943864    6.35856117367054
H         -13.86531975406899   13.23032593194079    7.66066014638752
H         -12.94152874870366   14.24236033701815   13.04376832330814
H         -16.46315848354711   15.49015708563892   10.98319671793281
H         -15.61855081711965   14.47479494479902    8.88132216791768
H         -11.18599943303523   13.01795634269017   11.86176859346907
