110
 SCF done       -231.268595355516          0.000593646497
C          -0.13160557164584    2.69464007455016   10.50406613321381
C          -1.09345106969393    2.79522082239852    9.54587242212611
C          -0.60180454590360    3.43554909945303    8.39180643568491
C           0.74192320825555    3.80510111635327    8.51751232591986
S           1.39350257619753    3.37231146780210   10.03328314108630
C           1.15271089580434    4.44505696999017    7.31179396417419
C           0.06347497302558    4.47318789535323    6.43223064637690
C          -1.07736749138118    3.84082326257569    7.08180964222347
C          -2.32921973539903    3.67487647055885    6.56451478533107
C          -2.67610542176168    4.12786841821043    5.27476910976888
N          -2.96814802510732    4.49848900822674    4.22944646533956
C          -3.36390806874121    3.04497066023362    7.28668160775351
N          -4.21036776913232    2.53433239390081    7.86821237346493
C           0.36959358736608    5.07738565311384    5.21135044035962
C           1.68864443748697    5.48017532696287    5.14741375139865
S           2.54871287378627    5.15857785248807    6.64666743128602
C           2.27947235531775    6.23391790721036    4.08790542017514
S           1.28470767835455    7.47708845717019    3.40264161746740
C           2.58433075553510    8.14422160946419    2.47999285586577
C           3.75875068516117    7.40005611740499    2.67890455382407
C           3.57316912542313    6.27653702091591    3.55602079577328
C           4.65152520686323    5.35960583223933    3.70767055042937
C           4.53391533597871    3.99165622396982    4.31050656161292
F           3.30148648792615    3.46392749383637    4.26195039088970
F           5.31893856554658    3.10812405057469    3.66276048299387
F           4.93174899274156    3.92699657935049    5.59964756965938
C           5.87687196437859    5.67607495886664    3.17512606135778
C           6.08903573203466    6.83699624421319    2.42834173411124
C           5.04052197157770    7.67485285634900    2.11967590510915
O           5.14094538844109    8.74201623240221    1.30212290330202
C           6.40578684808295    9.09926573426677    0.79174676313886
C           2.38927611157085    9.29991127327472    1.69543499248609
C           1.17596227547200    9.85914047617933    1.44604760096571
C           0.98284952117384   11.01935168944286    0.65874620456298
S          -0.44185159484741   11.08575641571672   -0.32638999305013
C           0.10421691611699   12.47773775013369   -1.20356671784311
C           1.38656868481901   12.85990045360884   -0.76624814468040
C           1.82624649449248   12.11159278983783    0.38033310100887
C           2.93966115044376   12.60563884825125    1.11199241878032
C           3.28666475285477   12.20423246692145    2.51939767251682
F           4.32343225974461   11.34155466469940    2.60064366455253
F           3.68115768554340   13.27737172306287    3.23416117355137
F           2.28113994919136   11.66745506150804    3.21939065276669
C           3.69597774847392   13.62497605150686    0.58197166141710
C           3.41350342692212   14.15782469646508   -0.67834194055871
C           2.27419314651163   13.80000687443696   -1.35859715275541
O           2.05380460246992   14.38421873050445   -2.57708743922961
C           2.00870207559603   13.50771389583496   -3.68569892315009
C          -0.79309936635366   13.08073597071249   -2.11336949933420
C          -0.80024334363337   14.39873873937615   -2.46065689946567
C          -1.68187925466262   14.93661036518669   -3.42107697739438
S          -2.42538515178670   13.84949970226225   -4.55375216908525
C          -3.15304370780574   15.12592557102729   -5.46793335050512
C          -2.85514104583235   16.37224480700566   -4.88542457083093
C          -2.03863201660422   16.26805229224420   -3.71141499003178
C          -1.74003179883581   17.45308425507864   -2.98761894470373
C          -1.03066946228331   17.45097244205616   -1.66612753161204
F           0.29413406248135   17.21503885463012   -1.76123167188261
F          -1.13083312068607   18.63160282867267   -1.03306757972506
F          -1.52060761479678   16.54259905828960   -0.80173825026376
C          -2.16091252928637   18.66502467836577   -3.47785062657363
C          -2.90018503252451   18.77155174773581   -4.65745226959642
C          -3.27552519548943   17.64821476752416   -5.35915561069178
O          -4.02937424813239   17.67397328345483   -6.48010660809473
C          -4.47698281135944   18.91528070887834   -6.97868326115705
C          -3.89703020720853   14.84077550528067   -6.62948997381329
C          -4.09989109514815   13.58972304494017   -7.12441337169758
C          -4.81569566427015   13.30512026616442   -8.30680943388488
C          -5.01155699005971   12.05368671056392   -8.87447764971321
C          -5.74226005508316   12.11912572565161  -10.05747322352045
C          -6.11568029371960   13.42794744432109  -10.39939316220274
S          -5.56336357420116   14.58000526384093   -9.26472202541374
C          -6.84870503500975   13.38313172557814  -11.61524088317179
C          -6.93522923588975   12.04975267128832  -12.03957592877925
C          -6.24531584594940   11.20971761978831  -11.08319949058902
C          -6.08449753866145    9.85458147995585  -11.12747464135825
C          -6.60923519519075    9.06970822041586  -12.17483698403679
N          -7.03324650381078    8.42668305216071  -13.02454213140487
C          -5.37708072676772    9.14949348230623  -10.13242171362931
N          -4.79975055138161    8.57223932144080   -9.32651590652216
C          -7.64771647452960   11.91549167605318  -13.24743605660511
C          -8.07905891418104   13.12153152016795  -13.70649228765218
S          -7.63407957155887   14.45457741057759  -12.68857897394102
H          -0.21748453075976    2.25666065826014   11.47820873740807
H          -2.09652548656027    2.42860423983086    9.66548769372207
H          -0.31292832178456    5.19915096540175    4.38990587367746
H           6.70192872240861    4.99260648879831    3.30459993249373
H           7.07984888138193    7.02446318049509    2.05144340157020
H           6.81347883671301    8.31463795046291    0.14744656063897
H           7.11073723406412    9.32190759971696    1.59682073318379
H           6.23671486508280    9.99981850602973    0.20378903407232
H           3.27265646123533    9.73004775982040    1.25463504450553
H           0.28055149423802    9.34075538516978    1.76680700215614
H           4.53578585409007   14.01170817808427    1.13820571221878
H           4.07162106037853   14.88851372461738   -1.11931739437779
H           1.25538377669652   12.72474607265139   -3.56997748155694
H           2.98811009877316   13.04379796180823   -3.84597126142565
H           1.75636946104160   14.12788483402559   -4.54334652100648
H          -1.59301605180698   12.44447024051453   -2.47433749532551
H          -0.08297122582321   15.05390572536630   -2.00000510892066
H          -1.93211488158134   19.56931347957346   -2.93646715538815
H          -3.19075001458410   19.75466536789064   -4.98645313769277
H          -5.06034111485843   18.67728213336806   -7.86675820216468
H          -3.63876098000505   19.55999492527158   -7.25758062689910
H          -5.11328094362053   19.43102154318401   -6.25405300078924
H          -4.31417937187733   15.68481791882304   -7.15635859003175
H          -3.68665289640216   12.73315755975520   -6.60683821633134
H          -4.62819942902384   11.15213334643565   -8.43229994904775
H          -7.83273929416823   10.98427975615000  -13.75090577317701
H          -8.64196424608499   13.32483461418115  -14.59525883565727
