97
 SCF done       -186.781847059807          0.000914731731
C          -4.32242021457277   -2.85881282183267    1.12575673840598
C          -3.61202295958387   -2.71225882726839   -0.02522579762768
C          -2.88457329627045   -1.50531788420722   -0.03121571163332
C          -3.07354397088546   -0.76405395164344    1.14302371475225
S          -4.13088371052981   -1.53960382083642    2.23698753554582
C          -2.31048537957538    0.43075393702817    1.05265990656894
C          -1.64294660053817    0.44269859692184   -0.17860909769679
C          -1.98111640780479   -0.78099834887453   -0.90030482532123
C          -1.52917682024338   -1.15612379946575   -2.13327869355640
C          -0.64193756314682   -0.35704390687042   -2.88243763048380
N           0.08251809568895    0.28892703913564   -3.49342137681790
C          -1.91795531229103   -2.36901693954963   -2.73781638150925
N          -2.22993532234744   -3.35463041786700   -3.23480355294759
C          -0.86233822241021    1.58333229797788   -0.36657216930381
C          -0.92243351292379    2.44111775678813    0.71716862561185
S          -1.97381503859206    1.82122428398224    1.98723003878461
C          -0.27030125330940    3.69591347490970    0.88752208366292
C          -0.33969884980012    4.40182524616854    2.06369720322746
C           0.26245488891364    5.63501824292914    2.29985932354659
C           1.13799996487730    6.24341693923497    1.28673675172654
C           1.34205350614549    5.72968502412464    0.05499890016711
S           0.61799874472556    4.28104899340609   -0.51592784920390
C           1.67848558925782    7.40494545975687    1.90475290891531
C           1.18293098207757    7.51681710079048    3.20391424002737
C           1.68606540593007    8.65541942370565    3.87096326684179
C           2.53398801787446    9.36194401484478    3.07905944247979
S           2.75402997489161    8.68284323002268    1.49978333816877
C           0.27208548000319    6.43209202277069    3.46123354933190
C          -0.42239078635252    6.27099848149671    4.68531905111233
C          -1.54230058773304    5.52635064843235    4.87510505457897
C          -2.18529941624498    5.29530507454272    6.12610159668665
C          -3.37861728947926    4.54623979204406    6.17185784475748
O          -3.84667129147777    4.11780690420162    4.96467447648976
C          -4.46390430786131    2.84650636513610    4.85507530403413
C          -4.06899342862450    4.28838051243686    7.37643076129278
O          -5.29384775865592    3.65045554487475    7.30785589476100
C          -6.37770654905598    4.53461039501904    7.07750671054185
C          -3.55399465076172    4.65715827964666    8.62590961502608
C          -2.34019463054125    5.38923161644954    8.60136487517717
C          -1.67724665474758    5.73454695562696    7.37555441542481
N          -0.57348373269974    6.44422124458418    7.60187181679578
S          -0.38779259399267    6.65581498702714    9.18699867380474
N          -1.70108093216605    5.85660732053108    9.66889431482952
C          -4.16198548837997    4.34750853948578    9.88300295988782
C          -5.32084148438089    3.63485709192166   10.14258793063168
C          -5.57705105572739    3.51931121176403   11.50641036418414
C          -4.59092731186298    4.13200380498189   12.29976666423222
S          -3.36927202102089    4.87507179896015   11.36512365065494
C          -4.92073029769460    3.91446765894071   13.65931278932283
C          -6.11479500360340    3.17835659135807   13.72934655420119
C          -6.57923223033276    2.92511348924953   12.37359231129797
C          -7.73116975408654    2.29757496398308   11.99520287323021
C          -8.64126897320067    1.76712527938442   12.93219134326221
N          -9.38609698118541    1.33208769463329   13.68837841941442
C          -8.09991438482425    2.16470873188329   10.64081235792645
N          -8.41731359715839    2.06710236874442    9.54264352725744
C          -6.50612207347875    2.89644781803664   15.03863019834382
C          -5.61899920322454    3.40425574625108   15.96976108151560
S          -4.27997197300073    4.25814867407300   15.20460048915726
C          -5.67032360385109    3.28712089631542   17.38988599092098
C          -4.70870645996289    3.81614673113296   18.21063534308648
C          -4.69472152733921    3.71672071823925   19.60431012910432
C          -5.81909006932468    3.08377164739158   20.31913860390185
C          -6.86616544241641    2.49031466369983   19.70934443674433
S          -7.05648743039345    2.38833309913653   18.00728792706027
C          -5.52645163974669    3.25018898169562   21.69852274009495
C          -4.31278272587145    3.92776705369560   21.83756171928997
C          -3.96108669308478    4.11547243004205   23.19362809324809
C          -4.89499911174645    3.59165210240849   24.02852282938537
S          -6.23251184766109    2.84819901765266   23.21378172832322
C          -3.77552102306545    4.20639883407623   20.53585420096353
C          -2.51286022842960    4.86638244629343   20.33309083709387
C          -1.70990648175310    4.75116023588103   19.27630983144384
H          -4.96201095691741   -3.67149541446943    1.40604256815518
H          -3.61294350212320   -3.43246912914571   -0.82279706686525
H          -0.27056906070336    1.78928965750882   -1.24022622182460
H          -0.88346982118322    3.93330927347251    2.87162116202193
H           1.98141330224451    6.20307386670295   -0.67337917377295
H           1.43838539726068    8.93636703825195    4.87837466792690
H           3.06163314800264   10.26414067755826    3.31992276447848
H          -0.02486094279623    6.81909162538285    5.52836653855396
H          -2.04297091145434    5.07808344781862    4.03100551239592
H          -4.07009262636157    2.14395699189824    5.59055475844633
H          -4.22621729644258    2.49309750638403    3.85019401732853
H          -5.54793474970627    2.91097071076436    4.96566426504507
H          -7.27384542105278    3.91652160083150    7.07982722969128
H          -6.27835302058691    5.04560297208984    6.11411070575177
H          -6.44914562908389    5.28502312583169    7.87190606530604
H          -5.92650156024937    3.19983332008000    9.37142968879341
H          -7.38668366770305    2.34341452149143   15.31218473347151
H          -3.91335039442482    4.37060540137318   17.73170830414684
H          -7.66823738723348    2.02145356070264   20.25767432949715
H          -3.06928966939020    4.60837875540846   23.53645950586429
H          -4.89064882885878    3.58888767910015   25.10112157381205
H          -2.19409828717699    5.48238276568676   21.16606988079567
H          -1.92998920376927    4.10217977479980   18.44699394687929
H          -0.77753439702698    5.28683346130176   19.22554743232019
