73
 SCF done       -150.888633328028          0.000849056094
C           6.33088014751470    2.10346833906875    6.31808289562632
C           5.21221168238959    2.42155933378594    7.02363387843305
C           4.25121820989733    3.05209674913285    6.20743443976682
C           4.68734590864494    3.19201176618713    4.88275502633903
S           6.25377525696264    2.55792105255787    4.64527513149658
C           3.66558714156806    3.83726926829724    4.13489229176496
C           2.58696371139478    4.10368442458719    4.98970892020168
C           2.92482358893088    3.61893004921460    6.32571528159361
C           2.15743872183442    3.69094477562302    7.45409792232284
C           0.88539735834670    4.28896429789633    7.48611942366158
N          -0.14983490208941    4.78201602390523    7.54844261492261
C           2.60069145506989    3.17310452511082    8.69028966609978
N           2.95581987240720    2.74904277881051    9.69467811308091
C           1.52210663988141    4.73421210926787    4.34690731673964
C           1.78491399982052    4.95827910989080    3.00417999979449
S           3.37337697179660    4.36727287361661    2.53900926722716
C           0.94866481043959    5.57656793903132    2.02568350419464
C          -0.25548555681849    6.16105560909353    2.33376881340246
C          -1.10629774383209    6.77290269476390    1.41146740884318
C          -0.69245301694858    6.95606215250639    0.01242314027060
C           0.44443466227228    6.45115512305714   -0.51261253175812
S           1.57883161985744    5.52902860274839    0.38338983731471
C          -1.71476647682571    7.74219312500256   -0.58657413847098
C          -2.70128081164203    8.02445412369987    0.35882685945918
C          -3.75227944682330    8.79675457957060   -0.18311204037307
C          -3.53896863481077    9.07731293337705   -1.49521944632898
S          -2.06718514183127    8.41785326737091   -2.12670985774554
C          -2.35136292853555    7.39947087112600    1.60676767369687
C          -3.16370531920741    7.44165054488019    2.77064391251618
C          -3.10538000649129    6.54755648671057    3.78652438239132
C          -3.83675392123421    6.58749053509494    5.01398421151908
C          -4.76754478000893    7.54646785614360    5.38568612494126
C          -5.40563130943041    7.50506837877134    6.62242244458607
F          -6.27949612065605    8.50749667401124    6.86862391598297
C          -5.17487522331732    6.55189972660177    7.60489663393178
C          -4.20866887544897    5.57385073824556    7.26426485144950
C          -3.56705669037418    5.58020794180729    5.98000688437734
N          -2.70930177841404    4.56876786173913    5.84410532646557
S          -2.70207278326059    3.71051436447280    7.19915180787911
N          -3.79509991496523    4.54985050278673    8.01558437988584
C          -5.85102962272977    6.53363118167673    8.89160733705432
C          -7.17485232618832    6.95858468485803    9.06757731817286
N          -7.77777488237795    6.93303564926725   10.23679865676066
C          -7.07837000289307    6.47169848909100   11.26878553720163
N          -5.82180573751633    6.03169925994702   11.21829292864728
C          -5.21868411535924    6.06167289216780   10.05251897800032
C          -7.71825039902903    6.43756015818010   12.55908159915665
S          -9.30110635716405    7.07331886200546   12.81848897015417
C          -9.25194380184703    6.66934575649469   14.50339230996574
C          -8.04459979144686    6.06453888745568   14.83706044117552
C          -7.18448182801293    5.93903579443436   13.71970236848591
N          -5.86967967808529    5.32216688302601   13.79568959111941
O          -5.81458554018058    4.14818756033966   13.53093996948154
O          -4.96503600653387    6.02460254536303   14.16702022893809
C          -7.67221839142985    5.60525400303410   16.11416403768430
N          -7.33416120520670    5.20755044107005   17.13495024078281
C         -10.39285047926962    6.98458132133050   15.32055534125789
C         -10.51093151453020    6.75289765730831   16.62673890753258
H           7.21858602793913    1.62100289419946    6.67486337682245
H           5.08852171497306    2.21353953917061    8.07055111332135
H           0.60047441299722    5.00459905549453    4.82881075771627
H          -0.53836150703356    6.17415419865988    3.37450588600990
H           0.71773603581264    6.58424436899641   -1.54745826538600
H          -4.61804761944565    9.12928845308998    0.36016567660474
H          -4.16556635925815    9.64357658901539   -2.15625623381822
H          -3.89324119906794    8.24061097512881    2.79926755411710
H          -2.46093736729529    5.68581840923865    3.70087978330383
H          -5.02416263358999    8.35651400063967    4.72219024149836
H          -7.77886259144660    7.31305991764246    8.24407654029775
H          -4.19915633874098    5.70564193750040   10.03420223379161
H         -11.20402800998027    7.45353142188693   14.77874700151225
H          -9.73120378447752    6.29009323422179   17.20512157993262
H         -11.40785947757128    7.02544286856789   17.15450170526661
