110
 SCF done       -215.891289634099          0.002207315271
C          -5.41044203924804   16.98700609808061    4.25874515961963
C          -4.85966115118526   17.05662862003795    3.01567447416785
C          -4.51372042944438   15.77828104833318    2.53638628449101
C          -4.82492372834934   14.76369192832381    3.44945180366847
S          -5.52739441041980   15.37256882140637    4.87985164052668
C          -4.44386632431546   13.51199298999652    2.88677103311206
C          -3.88532075544754   13.74570957190258    1.62361726023036
C          -3.91564593436796   15.17947002052983    1.35824375612361
C          -3.47674071150316   15.81412965601848    0.23282742665146
C          -2.90896665970352   15.11024936606970   -0.84991097664003
N          -2.44906776415647   14.53790285325132   -1.73074194156431
C          -3.56079738064005   17.21328496481348    0.07568953951007
N          -3.62508467437235   18.35080068093717   -0.05763208225074
C          -3.47398497431145   12.57389800464062    0.98657879861919
C          -3.72843547115560   11.45119548479342    1.75108949107450
S          -4.47672059926831   11.85394766704678    3.28888397739555
C          -3.44207975905561   10.08959600690460    1.43612336558626
C          -3.89643623227766    9.04797243688408    2.20348919208363
C          -3.59736511258030    7.70555220188723    1.97973128800771
C          -2.65373911425158    7.30571932800061    0.92976370385428
C          -2.12446258932254    8.16512745884488    0.03021097090133
S          -2.44754651915625    9.84662303628778    0.01267017290239
C          -2.45516136952905    5.90908034298131    1.11166035340519
C          -3.21485342797482    5.46552876607253    2.19503793864965
C          -3.05709962861704    4.08118074869204    2.42717653458165
C          -2.19369633702812    3.52276439306451    1.53896880973753
S          -1.54456750829890    4.64204764736226    0.38787800183796
C          -3.95319977253451    6.57538496900466    2.73473936457214
C          -4.78529713555424    6.51410002959400    3.87829796616286
C          -5.81297875130499    7.34710226961362    4.18138077568310
C          -6.44900216052815    7.33139929248570    5.46148732100723
C          -7.63761901814813    7.93641471898144    5.75702750835700
C          -8.16837140592581    7.89164900392897    7.07750739206248
C          -9.41044813393618    8.40840898906562    7.40817162098352
C          -9.91051891454565    8.31621722044996    8.71476542656036
N         -10.30675026505600    8.21574280443128    9.78941320808636
C         -10.23498042564189    9.02541141303115    6.45573018091599
N         -10.90371557414651    9.53572479742966    5.67211348758807
C          -7.31135112697024    7.30516279413389    8.07205226271437
C          -6.12958203254186    6.76750022136641    7.70606638079416
O          -5.73487198898873    6.67814735573873    6.41821286409671
C          -5.10938097792453    6.26540688132730    8.63370517133110
C          -3.76311800525265    6.56403711343820    8.38297943863561
C          -3.38825674105420    7.45093552729966    7.23633187871242
O          -3.84580680042705    8.56772083294438    7.11192734310555
C          -2.43661939354418    6.85399078674106    6.29082897555411
C          -2.21244986282099    5.50373909552637    6.19605396067431
S          -1.16075462595124    5.10244885540617    4.91237614704158
C          -1.02269190540249    6.75292968291035    4.45997929968727
C          -1.73369304855863    7.58115679745188    5.27284014463268
C          -1.73064465811404    9.05470493134654    5.09269664824671
O          -1.83452694192328    9.55286068020731    3.98923422190417
C          -1.55677449098384    9.86126130147650    6.31853269527678
C          -0.88368049763662    9.36814316792643    7.43469080157095
C          -0.74546683274727   10.15600001270090    8.56057404594551
C          -1.27774530738925   11.43577650576470    8.58541784921131
C          -1.93243577804433   11.93807671459917    7.47247881702203
C          -2.06318611912024   11.15913814360345    6.34072229806705
C          -2.78596396425278    6.09003861114558    9.24940221026579
C          -3.12620726179021    5.29661355050922   10.32610935568296
C          -4.45715089145070    4.93213451628596   10.53803955361964
C          -5.44575271848410    5.45547180734966    9.70572222369340
C          -4.79924827058955    4.00112928756195   11.59415583851400
C          -5.72030376664538    3.01952558993769   11.52822121064478
C          -6.19278115326768    2.35234318849444   12.78223620955163
O          -5.65231623054706    2.38735207692633   13.85982129260623
C          -7.46847934988252    1.71063559869144   12.41498075109945
C          -8.37701317797337    1.08892570692669   13.22331075245918
C          -9.56302832018140    0.57381562338789   12.65512722965643
C          -9.79077632615945    0.72326063494414   11.25529182592559
C         -10.98246150612044    0.21812237542556   10.69649346692214
C         -11.90141314602420   -0.41102779832937   11.48848431740701
C         -11.67320156510125   -0.56182870872381   12.87223443838845
C         -10.52936425079259   -0.07963086222180   13.44456865648238
F         -12.58987207890072   -1.18378808948819   13.62235814119460
F         -13.02995233587517   -0.89346161691066   10.95716552416870
C          -8.83019187263665    1.36458048321320   10.44203111820873
C          -7.67858261919823    1.84299226191107   11.01125074213708
C          -6.52063057980756    2.50731509770882   10.42377916513340
C          -6.16502664296311    2.45121080501031    9.10418563696475
C          -4.94604546010600    2.90595644591730    8.56029840243880
N          -3.96882475071686    3.19998810077244    8.03344139348540
C          -6.96568853559994    1.85224804971633    8.10604681287085
N          -7.58000619112681    1.39225335554717    7.25338402858639
H          -5.76568497997360   17.79516864426667    4.86591638775312
H          -4.71264151443160   17.97540687660898    2.47802983622645
H          -3.02042851307577   12.52800022335273    0.01321608138165
H          -4.49085803228569    9.29973643573050    3.07049789375729
H          -1.45041015394647    7.84798453679224   -0.75007853238333
H          -3.55122043847680    3.52593230300613    3.20383224260100
H          -1.88517410135340    2.49750334619596    1.47965031754665
H          -4.57331220627127    5.70583116947829    4.56898206740619
H          -6.20094783035912    8.05123523963370    3.46321069923508
H          -8.18737970647259    8.44256608733198    4.97984270875327
H          -7.59315494551955    7.35429092436325    9.11145279689828
H          -2.63819179323350    4.72369817724755    6.79930905644614
H          -0.40212344481751    7.03593542620528    3.63278147640411
H          -0.45443883649642    8.37590847655733    7.41320213773169
H          -0.22390482365955    9.77190988052444    9.42525284446526
H          -1.17889554727223   12.04171836448179    9.47324526686191
H          -2.34254947837319   12.93681001435421    7.49073455396120
H          -2.57500193509406   11.52882800290629    5.46515533986566
H          -1.75274308898412    6.35148718091875    9.07750397428614
H          -2.35940190722487    4.91172892203604   10.98076629899423
H          -6.48465139445002    5.22309961215498    9.88986881024029
H          -4.28786874018445    4.11606246782611   12.54385347814743
H          -8.19398028292880    0.99476758282419   14.28280334866434
H         -11.17153951424391    0.32287437471992    9.63955780207056
H         -10.37095344288985   -0.20181483243668   14.50459576292452
H          -9.03362108269324    1.47353142276276    9.38868558048029
