114
 SCF done       -211.794089916252          0.000694508260
C          -4.52634600169071   -2.28313569093365   -5.86356749945867
C          -3.25965101303506   -2.07186829035635   -6.31356277892182
C          -2.49581540204201   -1.34746691825523   -5.37721269618830
C          -3.22628434797177   -1.02843790977769   -4.22539861901710
S          -4.82942150802817   -1.61093879059034   -4.29340726170063
C          -2.38227430055814   -0.30382524991467   -3.33888150284425
C          -1.12300837017724   -0.16720293558433   -3.93464508100903
C          -1.15254976803350   -0.82206357105393   -5.23915817507576
C          -0.12388603972319   -0.91810148685086   -6.13089251090129
C           1.14718541250596   -0.36439363407628   -5.87323917042534
N           2.18148072915752    0.08693824297708   -5.66906157793167
C          -0.26169465028510   -1.58125869858041   -7.36796851964531
N          -0.36826716936965   -2.11883185659379   -8.37528047968111
C          -0.21418156166784    0.53068744883303   -3.13854087502032
C          -0.77066348582760    0.92625232628549   -1.93600367281594
S          -2.45283656698761    0.42481846351475   -1.79546026700424
C          -0.14154802267917    1.64098112624352   -0.87438696315753
C          -0.78169949747476    1.94730137118399    0.29888345919118
C          -0.20232410160430    2.62282288197393    1.37404778823391
C           1.19825345193160    3.06314964302440    1.32371125486599
C           2.01309470115575    2.87627498426438    0.26433791738954
S           1.53608445944998    2.08902814810689   -1.18354961990856
C           1.43998318277661    3.67256460661383    2.58370324031179
C           0.28578515574088    3.61517197160048    3.37142463660199
C           0.48344910665722    4.24075486861870    4.62474156964686
C           1.74477346422092    4.72823118985209    4.75297735995945
S           2.74838398940552    4.46138512762696    3.36864423860476
C          -0.75095932121717    2.95520318397185    2.62116126750119
C          -2.08500519117310    2.66488958736197    3.03355041278044
C          -2.52809818332432    2.69136191777272    4.30412056364554
C          -3.90854470455167    2.43259306883833    4.67169073455755
C          -4.92374091708964    3.02649649970748    3.98424507099834
S          -6.49483702498086    2.72492721028484    4.61733821958853
C          -5.79768086682678    1.72338865321137    5.85191033395007
C          -4.40034339811197    1.63167105409440    5.76924091179061
C          -3.71274404277011    0.78584468174267    6.67168732325532
C          -2.22310982861731    0.63484165216035    6.49550487797095
C          -1.43001197290364    1.58207809906579    7.39929716289516
C          -4.40451347145052    0.10010448594363    7.66520372141302
C          -3.65665035595732   -0.68831019501139    8.70942852733937
C          -3.75206621004488   -0.01693676432894   10.08159193051975
C          -5.81925186609885    0.19025053934121    7.73573608720998
C          -6.77624391525090   -0.42730699184496    8.63470713354401
C          -8.05391069775107    0.00136959355084    8.38730694829822
S          -8.20864968388971    1.08238873818681    7.07194494338787
C          -6.48770393937486    1.02622137252383    6.82792656753903
C          -6.53190632376418   -1.43975124002527    9.62569349593300
C          -7.26876695890501   -1.62055502593589   10.74594379008988
C          -7.02237681865959   -2.66508721175107   11.67775702884865
C          -7.60239271755660   -2.92187857385296   12.88983092094102
C          -7.00372808004331   -4.09687860859237   13.47251731096106
N          -6.05503391457346   -4.57337050637984   12.62911851568103
C          -5.99551641967542   -3.74359868725887   11.50199081569998
O          -5.22278004230205   -3.93052656679567   10.59419961476626
C          -5.20070250485412   -5.71273601454930   12.82490361984700
C          -7.51835497648931   -4.30086519576594   14.72860512013923
C          -8.53675414987610   -3.22079805470444   14.91354072588055
O          -9.28705951974773   -3.04516964666993   15.84835269039143
N          -8.53405784221822   -2.43956767554595   13.76642984912961
C          -9.36384524023415   -1.27739828094358   13.60373845610528
C          -7.23512640032249   -5.32781482860641   15.65460226631797
C          -7.45381460669330   -5.33194778863476   17.00038450161784
C          -7.49065946764711   -6.62262842207116   17.73466606608102
O          -7.14150921261499   -7.70440766356139   17.32425300320606
C          -8.08588416386508   -6.29795515721811   19.05436821072411
C          -8.27602108818982   -4.90658807802181   19.14505169950538
C          -8.87863564516710   -4.36032970293300   20.26586424083802
C          -9.26009499879166   -5.20255238519796   21.30766280593919
C          -9.04735453276285   -6.58864582099007   21.21627038714957
C          -8.45775476073067   -7.14441719310469   20.07591189621894
C          -9.39405415971447   -7.46654342273656   22.27489806764471
N          -9.59913088937065   -8.25583450469178   23.07891597743032
C          -9.95720734450121   -4.67035620004652   22.52672844737436
O         -10.74089560344754   -5.32737715105026   23.15023089341694
O          -9.65877248059224   -3.41584776684643   22.88384680713708
C          -7.74222755757023   -4.27430715904225   17.94032019616124
C          -7.34391882505821   -2.96609102499062   17.85685633556659
C          -6.62010172869114   -2.44179487873659   16.76912056780382
N          -6.00420556276864   -1.99390035324487   15.90980648534815
C          -7.53328411321715   -2.04102667931011   18.90171871529206
N          -7.66376188338864   -1.28228767737982   19.75348912947645
H          -5.32308952478247   -2.80080721285107   -6.35882605873782
H          -2.89829784928605   -2.41846260747439   -7.26439921615535
H           0.80445662508750    0.74313937718399   -3.40861348449262
H          -1.81136006165771    1.62523960895627    0.38791591883733
H           3.03895521932637    3.20936146699530    0.25236912659187
H          -0.25713612267291    4.34997021446211    5.39537515275576
H           2.16419898171307    5.24561316867294    5.59373350743845
H          -2.76720170202411    2.34861739808906    2.25473544073885
H          -1.85095257837981    2.95027329344755    5.10107348111557
H          -4.82398348106175    3.68596141692064    3.14400850482050
H          -1.97862564447306    0.83825623585911    5.45235586711238
H          -1.91855095795288   -0.39463136978581    6.68855666699309
H          -1.80659590442257    2.59938800693889    7.31367091337797
H          -0.37754263130853    1.57338143106846    7.12299776959760
H          -1.51310098410801    1.28705717502291    8.44169920609671
H          -2.60461827155454   -0.76603354790325    8.45018427866568
H          -4.03642108801623   -1.70751146400906    8.76382594708207
H          -3.33689665064434    0.98792176095635   10.03869843801699
H          -3.19396739852186   -0.59273190746037   10.81605478955040
H          -4.78251506645773    0.05675400805452   10.41798959357807
H          -8.94387168891759   -0.32919092696834    8.88643218241715
H          -5.72392777449865   -2.12779864308212    9.44529855715585
H          -8.06494241802869   -0.93217705220725   10.99656890335132
H          -4.69179781423072   -5.64202528156049   13.78726599005064
H          -4.46679003657718   -5.71241846142761   12.01943957416436
H          -5.77470625158389   -6.64068842902921   12.78553838991801
H          -9.97821117908822   -1.18955042665402   14.49933612307568
H         -10.01043556184487   -1.38550049902061   12.73093601375547
H          -8.74946830002202   -0.38138298224158   13.49719825892550
H          -6.86663647134860   -6.26433368885195   15.24746188646993
H          -9.09435647116183   -3.30302556527079   20.30604332535973
H          -8.30084251748658   -8.20960874671787   19.99858610501139
H          -8.99820414309923   -2.98623435897187   22.32220326103400
