89
 SCF done       -180.335218967451          0.000343042002
C          -0.47347782522427   -3.94728078937965    1.49291706066508
C           0.21805824722162   -3.57295752948838    0.38207284985042
C           0.15242534923142   -2.18006096670535    0.18196442315070
C          -0.60260935114610   -1.53419994789901    1.16926036310107
S          -1.22229804392767   -2.62385552897251    2.32733082996307
C          -0.61718284852968   -0.13903068663315    0.89053469587512
C           0.12913161285105    0.08942835708970   -0.27245740597832
C           0.63892760050522   -1.18929025089739   -0.75698750385772
C           1.40945655239651   -1.39841185702480   -1.86396348437484
C           1.81909425671080   -0.34337771168811   -2.70498404103836
N           2.15451135761373    0.51015197485246   -3.39386105453907
C           1.84691464166809   -2.68426577328778   -2.24343018469447
N           2.20533183924714   -3.72698065374384   -2.55934978680148
C           0.17323190396239    1.43538072005516   -0.63664318669415
C          -0.53823384550421    2.23468093277018    0.23976533797273
S          -1.26749095337059    1.29885446402791    1.54126462871707
C          -0.71754999233438    3.64841466348727    0.18788250317850
C          -1.49073039665558    4.32487906157923    1.09809459855055
C          -1.70944295135002    5.70201984332453    1.10174347933760
C          -1.19021650438624    6.54236481753842    0.01191739211303
C          -0.38992972783800    6.09033339745259   -0.97729694698201
S           0.12946719214788    4.46152080158863   -1.12392243928311
C          -1.71607504041755    7.84119078771278    0.25351745546617
C          -2.50045328609185    7.82041292565522    1.40694957016680
C          -3.04892138934144    9.08814465859160    1.70114408607101
C          -2.67782574305157   10.01709054165533    0.78188090629626
S          -1.65009331107178    9.39954950978695   -0.46886144404124
C          -2.48341794983217    6.49489895971410    1.96850340324646
C          -3.14831227058981    6.14486940409358    3.17250579921744
C          -2.83914598542837    5.07796134267637    3.95182079211969
C          -3.50296579768604    4.63000795166957    5.13403398469127
C          -4.71535423329504    5.08655596661392    5.66139663586208
O          -5.33245124309338    6.09419576551979    4.99551213218280
C          -6.74754280698185    6.14596360961817    4.91884051248913
C          -5.26115481628033    4.55797100246485    6.87886217701848
O          -6.31980803224367    5.26454662424331    7.38026045335188
C          -6.39354751091697    5.48832779816267    8.77299876082057
C          -4.73036132066625    3.44040929274018    7.52005510150522
C          -3.49134843255192    2.97747730253700    7.01585023313240
C          -2.88644592218989    3.57171506798496    5.85595748763396
N          -1.77006837770739    2.91514976909625    5.61916308202504
O          -1.67778726022651    1.97627175508824    6.56282203075186
N          -2.70908660467871    1.99577963150706    7.41404174892579
C          -5.40425359253031    2.69051384844615    8.56102047308732
C          -6.76158792547296    2.50743787931710    8.53047608055528
C          -7.49400573028396    1.74057319115240    9.44303399376176
C          -6.81536747375705    1.12683593934136   10.59289562976169
C          -5.47716920352299    1.16112193428867   10.79222342025035
S          -4.36316176042715    1.94211004224609    9.75223395501893
C          -7.84319903464867    0.51904613194293   11.36183563416203
C          -9.07366940733444    0.72797919620071   10.74088518073853
C         -10.13923303207398    0.13766947249882   11.45538371879020
C          -9.69890056934154   -0.48749401505299   12.57838583293007
S          -7.98542192706069   -0.39246662607301   12.81382757889173
C          -8.87136846999926    1.47147997319284    9.52283429058352
C          -9.94838559635590    1.80359370015072    8.65699178451694
C          -9.84943277767973    2.22460285559927    7.37396009123168
C         -10.91965309775063    2.59017684883710    6.48522897840643
C         -10.58771907455708    3.17852807994372    5.24950388626702
F          -9.28731955981455    3.39610714413617    4.96332133215602
C         -11.54225853617308    3.55618191667231    4.32348266037138
F         -11.16286077378003    4.11841964349439    3.16575218081713
C         -12.89026241110754    3.36521941690007    4.57494561888948
C         -13.24549219485627    2.78966933640855    5.78210740505666
C         -12.29387296866729    2.41211393791463    6.71704610801004
F         -12.72632530085379    1.85019446444031    7.85900091866438
F         -14.54453009134981    2.59209631173705    6.05049201650626
H          -0.59703890048427   -4.93544799067715    1.88843622545705
H           0.74351850132722   -4.26106272622791   -0.25445275184476
H           0.69070651323779    1.82492841070208   -1.49481888117507
H          -1.98778757985563    3.72378788321344    1.84636134586310
H          -0.00812336152290    6.73303070487984   -1.75488834889420
H          -3.68223743273185    9.30439524023530    2.54223811254104
H          -2.94412812091323   11.05562276081250    0.75157810728280
H          -3.92546917577864    6.82267813557676    3.49140354958816
H          -1.96294434933539    4.48948932387392    3.72027558030869
H          -6.97022124182739    6.61311857404073    3.95854419337273
H          -7.16860587863465    6.75149629112896    5.72318767342169
H          -7.19093379717299    5.15023802255063    4.94578624884266
H          -5.41397465034784    5.39938017165924    9.24721638751749
H          -7.08893646387605    4.79418563478113    9.25347067008271
H          -6.76536212661785    6.50681142104114    8.89556066681970
H          -7.28588806799762    2.99246760222970    7.72089295236588
H          -5.01242822855633    0.67207539760543   11.63412644497658
H         -11.17282095593644    0.16946763805984   11.16182670656884
H         -10.28186616285343   -1.01597200102805   13.30720940345225
H         -10.92348388447701    1.66880117527587    9.10100539806432
H          -8.87370711743569    2.29897665075612    6.92157689175526
H         -13.63728778804861    3.65403405044986    3.85597761679973
