114
 SCF done       -201.458697446543          0.000325564011
C           3.96362306948678   -2.75112383721194    4.75086006530718
C           4.70624394783849   -2.35890425684691    3.68078299391762
C           4.22492562514318   -1.15224880005566    3.13474719222431
C           3.10902811941515   -0.66099169009510    3.82573447410668
S           2.65958299670677   -1.66936046983203    5.12826133701607
C           2.69117989007180    0.55110952091881    3.21193653930729
C           3.54543168552669    0.82097444097646    2.13539677842121
C           4.54014494983372   -0.24477002274227    2.05185682047903
C           5.55043217699010   -0.35275317360739    1.13953496693963
C           5.75270410030957    0.60525928071851    0.12522377913032
N           5.92236845481796    1.38242193564035   -0.70127958266321
C           6.45972257721698   -1.43024584498859    1.14946384753040
N           7.20268497743794   -2.30412962741438    1.15169995927443
C           3.21948045091065    1.99653059760743    1.46036772653160
C           2.11952395566848    2.62832427138948    2.01375210419864
S           1.48142275933479    1.74487892815609    3.39710293880487
C           1.50650778034582    3.84271562577978    1.59047509872422
C           0.40815761236453    4.37945930424531    2.21520390314245
C          -0.22446038057015    5.56274958940425    1.84000535894398
C           0.25738565498171    6.35367641012942    0.70293572716298
C           1.32173292132895    6.01728310629797   -0.05608617658516
S           2.27026160662111    4.60930135760974    0.19766742042291
C          -0.62022254745048    7.46933972832903    0.63003702662556
C          -1.58011590568513    7.39359339247646    1.64343657526236
C          -2.47188091888139    8.49011430508520    1.59359811513617
C          -2.17180106642172    9.34048660472931    0.57772684661200
S          -0.80275642568866    8.85769095194338   -0.36443090890083
C          -1.34241922832493    6.19792868829600    2.41454686357885
C          -2.04175758733906    5.70042984526119    3.53936726467439
C          -3.08466645836670    6.29845567794599    4.16414292072176
C          -3.76171379698367    5.77658902482825    5.31115694849583
C          -4.79638860610589    6.50946438361293    5.90111338488214
O          -5.10960143393490    7.73202945864934    5.34459031086437
C          -6.42555344265781    7.85728300891450    4.83248475818160
C          -5.47523880225965    6.07642316121740    7.06761177931206
O          -6.43141153506646    6.90256333058587    7.62908803173094
C          -5.90751712334978    8.05330235157621    8.26546082694421
C          -5.20044579013048    4.85903392498594    7.67475699784159
C          -4.18376819882204    4.07575922197558    7.07972267954804
C          -3.45963163539035    4.52758176733386    5.92021149720891
N          -2.54903346202042    3.63717009264592    5.53242209094155
S          -2.60264569478428    2.36198027639534    6.51691800757709
N          -3.77615284994350    2.87347683746097    7.48633750276597
C          -5.88327440857873    4.40318079394811    8.88545610271749
C          -5.15102566846862    3.76206249547540    9.89110219709274
C          -5.79641348773049    3.34133603730982   11.02785013249966
C          -7.17620708511557    3.54910483675304   11.18859382373395
C          -7.90857612427096    4.17612553999293   10.19236182480782
C          -7.25712854198667    4.59701462015953    9.04831306710245
C          -7.57434953800380    3.01346740445574   12.47371361642918
C          -6.44141748200769    2.46526193010124   13.10100203828633
C          -5.21750110582470    2.63507905775696   12.23089226367601
C          -4.60595785331847    1.27759229428969   11.83856046027819
C          -5.59574783945851    0.37100116506920   11.11738334892068
C          -4.15068104691331    3.49919346136418   12.92865720751934
C          -4.67950941900070    4.86512903649510   13.34950622411663
C          -6.53520243861689    1.88726496334790   14.34208213697952
C          -7.77561339398582    1.85207328859114   14.99900175260558
C          -8.89243322293519    2.41482572173254   14.36375624268721
C          -8.80615813140820    2.98622210915458   13.11078988487430
C          -7.95182741404996    1.27488863410417   16.30902047284662
C          -7.04443435818666    0.54868386838868   16.99336431170136
C          -7.25904737549233    0.00795830560891   18.29444271685814
C          -8.33691363905346    0.15850683682030   19.14688173700848
C          -8.16045794919147   -0.53236212374548   20.34755619485757
C          -6.94165792721760   -1.21787150247140   20.41338082873111
S          -6.00948899109653   -1.00784015314614   18.99985823384569
C          -6.86562872603577   -1.88259862728777   21.67135450584087
C          -8.03364933358762   -1.61050724699080   22.39276040378242
C          -8.88712359687974   -0.75323104958972   21.59330118186853
C         -10.10980175317725   -0.24871617735140   21.92997117819370
C         -10.72063581249699   -0.52003592529104   23.17163333882695
N         -11.22301137476529   -0.73546254064805   24.17995087211023
C         -10.84472785710584    0.58177706497873   21.05917972600871
N         -11.44759133898008    1.25844557939906   20.35588251584000
C          -8.04295136607350   -2.23320027815469   23.65663030546969
C          -6.90602012922069   -2.95108115336490   23.86433444868193
S          -5.79309895770941   -2.89111151743157   22.53429292433383
H           4.09499915570323   -3.62285455823406    5.35985674911348
H           5.55129278076211   -2.90767964525993    3.30711680256404
H           3.74740620159338    2.38422127027281    0.60785814672295
H           0.01438821571105    3.83184127054628    3.06183487376598
H           1.65887834874338    6.61630914553139   -0.88723359401351
H          -3.29552468547609    8.65906001680937    2.26215837522331
H          -2.67868361346619   10.24715879157998    0.31031304853977
H          -1.69770041222691    4.75649881074368    3.93563538792914
H          -3.45113753279238    7.25270761354952    3.82062158036796
H          -7.18320590064565    7.65129537658399    5.59076038736351
H          -6.57116564708594    7.18067272120724    3.98322446689026
H          -6.51464236675775    8.88897948175502    4.49616127386634
H          -6.76943983736198    8.61580078438302    8.61936997690840
H          -5.32198431659151    8.66812987437954    7.57673034280630
H          -5.28153737236914    7.76930027263532    9.11831146059753
H          -4.09022851329614    3.61284053703398    9.76633610037160
H          -8.97180630019431    4.32998121591589   10.30183391810453
H          -7.81628935386018    5.07214159393276    8.25805963075677
H          -4.24777001615029    0.78020795237586   12.74281800830723
H          -3.74591066528233    1.45735469161113   11.19043283546260
H          -6.46775987698799    0.18070000247153   11.73958219864629
H          -5.12653480812381   -0.58119380254965   10.88051958469127
H          -5.92732733956234    0.83126630679731   10.18963471967456
H          -3.30888922288582    3.63108526837806   12.24557745036878
H          -3.78607870015071    2.96501093710715   13.80881213673539
H          -5.03813117792139    5.41972574328608   12.48511536947306
H          -3.89058329488575    5.44221755022397   13.82682176841850
H          -5.50232806033175    4.75879832081801   14.05306551693827
H          -5.65768197841964    1.47737214661236   14.81817792438854
H          -9.84514536960860    2.39140974230438   14.87349349239825
H          -9.68098793842984    3.40879414595940   12.63964109696312
H          -8.92133319293790    1.44547160530847   16.75781305241587
H          -6.07966481358355    0.32744296512079   16.55873295288988
H          -9.20209638687500    0.74725867969395   18.90577455993028
H          -8.84070635911777   -2.15772899395334   24.37275815660764
H          -6.63792738334684   -3.52558726503057   24.72807923426021
