89
 SCF done       -175.942152829748          0.000859942845
C         -11.25528167820169    6.24573391732967    0.13771141939380
C         -10.93433295348130    7.22716162257243   -0.74862247317220
C          -9.54988685034518    7.48539106708889   -0.75011922025075
C          -8.85594964572659    6.67723478585188    0.15774262581121
S          -9.88818083951475    5.60231047236573    0.99033470768463
C          -7.47611892306343    7.01601570863134    0.10368623798586
C          -7.30100092078861    8.03471351763658   -0.83945829739401
C          -8.60436026751963    8.36903618686201   -1.40371528137572
C          -8.87382790343129    9.32881596497106   -2.33442705558015
C          -7.86890410725375   10.17110600084614   -2.85370718468244
N          -7.06036693829340   10.87274632178749   -3.26409402630359
C         -10.17517586192522    9.56039226859649   -2.82559428423692
N         -11.22797515048714    9.74991597855590   -3.23939414045310
C          -5.97098709417492    8.44660398953630   -0.95680644508306
C          -5.13975858923841    7.76781341049000   -0.08860234955840
S          -6.01380368174711    6.57054768871508    0.86164007147485
C          -3.73970601143536    7.95020267311015    0.12743253135591
C          -3.11075901088941    7.45238293044674    1.23761159305245
C          -1.75593396856454    7.60919659593280    1.53838748182113
C          -0.84636475472191    8.20875213136777    0.54725176376522
C          -1.25383892865429    8.75932042199062   -0.61678967946218
S          -2.89246424758825    8.86120800219236   -1.11704911340777
C           0.45534548780934    8.05251565233095    1.09368118637287
C           0.36853606579697    7.42368655137993    2.33828238107964
C           1.63702563802188    7.24449112258343    2.93208396993807
C           2.63080142012970    7.71938423875556    2.13632779947039
S           2.07668788142424    8.40618709756859    0.64490356796136
C          -1.01254827202528    7.16048512052030    2.63959983717596
C          -1.47063139059883    6.50233050184403    3.82226384147690
C          -2.72205025699779    6.61870322968288    4.31441037414109
C          -3.31440759706969    5.87309313717127    5.39386459352425
C          -2.67288357351648    5.01201690909328    6.23896686676924
F          -1.36338372076583    4.75713394600588    6.27704913185203
S          -3.69274007326793    4.18654487473051    7.37096017777342
C          -5.04591959733809    5.01031997565936    6.67779664207443
F          -6.25801906657052    4.77866156985266    7.18401691255941
C          -4.74192061483527    5.87609973528788    5.66565992425398
C          -5.67198030050218    6.69803591000510    4.94105186843415
C          -7.01285905042923    6.57273493028339    4.86443008350663
C          -7.83926446070139    7.44048120325176    4.07211021388981
C          -7.34283209319405    8.38056697195296    3.20850103216988
C          -8.09319063102713    9.24974135221969    2.41936188935255
C          -9.55201235347316    9.11175465544939    2.33129673120068
C         -10.26539325875841    8.26093256124997    3.10327320712812
S          -9.57125316871134    7.21296599439065    4.27340744859451
C          -9.94828537718097   10.01805241084798    1.31057613387164
C          -8.82613534198924   10.68635119114778    0.81180335332126
C          -9.16434875042766   11.61329262190663   -0.19856525354518
C         -10.50152250849992   11.61823547819317   -0.44393960966762
S         -11.40367951258971   10.51325947680843    0.53762070277405
C          -7.65653956582516   10.23331537219599    1.51529046029103
C          -6.32676378534975   10.68574160881016    1.29989906014657
C          -5.33944596206086   10.57714106804541    2.22607012468211
C          -3.95914022843869   10.83875678176548    2.04403850992243
C          -3.25917134902644   11.32584068392664    0.95307334815645
C          -1.88499183665864   11.37157032016986    1.19145698811405
C          -1.52817631813545   10.91606335208917    2.46755071014853
S          -2.88383466722984   10.42978440126718    3.38003638048333
C          -0.11725355502378   11.01092196853126    2.60628744974771
C           0.41554271360670   11.52583268785219    1.41722679580484
C          -0.66592090026070   11.75537816537410    0.48336231725371
C          -0.57470880897098   12.20747870362263   -0.80155562072808
C           0.66164950944306   12.52746473181808   -1.39865854767103
N           1.66403337680902   12.78077241542737   -1.89516244609474
C          -1.70948129731785   12.35886565356558   -1.62462524539429
N          -2.63003633727351   12.47395110739603   -2.29867113479962
C           1.81645756594112   11.66488714046180    1.47425385795845
C           2.30647307132432   11.26257253213137    2.67782760276688
S           1.08543399011929   10.69833243826276    3.77527442821934
H         -12.22466043975082    5.84143147265474    0.34906490242964
H         -11.65524339026739    7.73644104130470   -1.36140734981062
H          -5.61613325390816    9.21128853332377   -1.62406858406342
H          -3.72218466910152    6.86856616351599    1.91181018026640
H          -0.56339492222141    9.18812464259012   -1.32665795061150
H           1.80844576244282    6.78988150020138    3.89073776380684
H           3.68590229683887    7.71250413042920    2.32856506312130
H          -0.74049995623887    5.87946903358714    4.31941093552376
H          -3.37520364515899    7.33722531730802    3.84696070505410
H          -5.20114051263643    7.50231620054265    4.39795287752858
H          -7.52685482410381    5.79560628678908    5.41038220298355
H          -6.27257986372998    8.41937461257503    3.09125198347721
H         -11.33964729382229    8.18469521052050    3.04077875941062
H          -8.46285320305638   12.24028377563488   -0.71915833976309
H         -11.03674391887616   12.21176846260302   -1.15904130898432
H          -6.11754139398843   11.14100738583030    0.34111981129515
H          -5.60043679092884   10.26056490415484    3.22573611337270
H          -3.73726683265578   11.63988743037666    0.04362589690279
H           2.42971183878862   12.03823142988588    0.67478821654091
H           3.32712220063167   11.25490125620300    3.00348919390203
