90
 SCF done       -191.054394666446          0.000888534758
C          -2.89223427064443   -2.18859706467238   -2.51961339868014
C          -4.03646432894534   -1.57637834496151   -2.10535928308086
C          -3.84404006327277   -0.19154289628048   -1.94031797856439
C          -2.53647471100295    0.20333741047106   -2.23653003649938
S          -1.55654632503009   -1.10608313584505   -2.72005196020429
C          -2.43767487307504    1.61529118355289   -2.06175933430977
C          -3.68847093414885    2.10237088748893   -1.66141837311486
C          -4.61372337498821    0.98233205855501   -1.56320416014901
C          -5.92651967930137    1.02896536985423   -1.19598742655140
C          -6.56537584053709    2.23856544114978   -0.85148916531073
N          -7.09021283457603    3.21920952880200   -0.57319207777327
C          -6.73176778966868   -0.12738073248548   -1.12938594238995
N          -7.39134309821848   -1.06335586072365   -1.06955796763612
C          -3.69766832270707    3.49170454453789   -1.49268187854846
C          -2.47907396789845    4.05817620333972   -1.79131979185507
S          -1.28144499162074    2.84848036675450   -2.23497232735592
C          -2.12441794881830    5.46002383104757   -1.71713593541777
C          -2.64897266245404    6.22344308108561   -0.66294505311609
C          -2.24463223615601    7.52956795830255   -0.53106017220020
C          -1.33143333169957    8.09948857418489   -1.42809142174819
C          -1.08876956575395    9.50076065195466   -1.00789803267471
O          -0.37992466677731   10.33802724631366   -1.50524855753845
N          -1.87353086229263    9.68583443417648    0.12080853426052
C          -2.59420474412682    8.55617047733736    0.48174146699669
O          -3.33610538020896    8.48023813511791    1.42661018655454
C          -1.89455220734756   10.91784043951751    0.88058461135759
C          -0.79397090595720   10.93299973654109    1.93552448857311
C          -0.82771971189464    7.37914615519944   -2.48297298877741
C          -1.23162887387393    6.04516044013587   -2.64816594881161
C          -0.79385676342030    5.28166217223419   -3.79536101395886
C           0.39281302844036    5.44006390000405   -4.41696731822461
C           0.89068517041175    4.66130561034351   -5.50959992838546
C           0.36347237750624    3.43732769816797   -5.98746899145114
C           0.98757488447628    2.69447527535685   -7.05219617417831
N           0.44305610538704    1.52911318549962   -7.45868757524609
C          -0.62048021353230    1.08560102180097   -6.88129805635145
C          -1.22600767245647    1.80267926795033   -5.81607472807497
N          -0.74455702232372    2.92609826534984   -5.40235639041085
F          -2.31446582737403    1.33752776593187   -5.19630271974640
F          -1.13560187699233   -0.06468541742454   -7.30212102917434
C           2.16778788320752    3.14421607310264   -7.68936585434700
C           2.68635519603126    4.37063098450237   -7.22946002748908
C           2.06548784473846    5.10258614736864   -6.15616281117762
N           2.73552291323819    6.22574844665636   -5.87718086014538
S           3.99508755216346    6.34487142847952   -6.85457692506317
N           3.77585907981517    4.99151652412514   -7.68482543754623
C           2.82611562158190    2.40940879702245   -8.71484009695445
N           2.45650604534084    1.24543908660516   -9.16123710595848
C           3.28141655485515    0.79694668528680  -10.09782536391344
C           4.37159546083381    1.65007546191935  -10.42230567552814
S           4.30737472711933    3.07592503659250   -9.46833166414913
N           5.20003788647995    1.20182663061194  -11.34347988476743
C           4.83340655990996    0.01726187988896  -11.78782873826045
S           3.35121576151835   -0.63220438884091  -11.03939188091873
C           5.63486380528193   -0.60277403509034  -12.76808063081035
C           5.48400486089968   -1.80318349471196  -13.39872313739392
C           6.37896092969212   -2.36035483439255  -14.40323967175568
C           7.56835768075640   -1.83512613959884  -14.83335555328570
C           8.39150027665677   -2.43928093178170  -15.80872284135948
N           9.10745751649703   -2.87544510656933  -16.59242864809152
C           8.16854876252555   -0.64184361092773  -14.37543949509691
N           8.74092823384299    0.30514752983836  -14.06901293900377
C           5.79477149500376   -3.61454384066046  -14.86345359197427
C           4.59487278979633   -3.85175296215624  -14.14506364705855
C           4.36582781181678   -2.74642044146278  -13.20535792757010
O           3.43494234604090   -2.63692023239286  -12.42966428980011
C           3.81307715764785   -4.96364862224472  -14.34954408619690
C           4.23165584621945   -5.88675916393091  -15.31191665314630
C           5.42857208170032   -5.64124582626220  -16.02840534655380
C           6.22005999643916   -4.51789441778002  -15.81952313435036
S           5.74967235848835   -6.90911420936344  -17.16779344807110
C           4.31150432049908   -7.73987201801627  -16.68616215897410
C           3.61655586015088   -7.10426398867769  -15.71734538324605
H          -2.74290702699415   -3.22895109637303   -2.72878823647057
H          -4.96168658384360   -2.09490727579433   -1.93248588141202
H          -4.56040968029045    4.06763285065901   -1.21076752651143
H          -3.33261998539319    5.78397881615582    0.04635547708311
H          -2.87686966795227   10.99207918332834    1.35285669030799
H          -1.75626493941474   11.74065382526711    0.17512181569873
H          -0.92664786248473   10.10589233807324    2.62923965375524
H          -0.83066698754933   11.86519838678866    2.49175464931895
H           0.18118772464137   10.84603799904077    1.46179149604651
H          -0.15902837998632    7.84113989809291   -3.19167821165352
H          -1.47570875996482    4.53501353644569   -4.17090068105354
H           1.08440002053716    6.20197198544033   -4.08162248246057
H           6.48840685759238    0.01209408173927  -13.02716048622030
H           2.90676734413789   -5.11337339567807  -13.78367554061865
H           7.12103146086284   -4.37855147031418  -16.39280452368453
H           4.07110864130623   -8.66841395804821  -17.16650671858599
H           2.69905092069413   -7.47136301769591  -15.29454073391558
