103
 SCF done       -187.406150525385          0.000784661949
C          -7.83295834593534   16.04457863765377    2.53862372802864
C          -7.00343562296159   16.39804061712107    1.52006333976216
C          -6.04497100917105   15.39701050132978    1.26510881128096
C          -6.18550687383743   14.29376892870746    2.12002506291538
S          -7.47813830143135   14.48839463816271    3.22004059753566
C          -5.18625820418705   13.33957513553556    1.79638572866291
C          -4.41638332058785   13.84219515060976    0.73768804854443
C          -4.93399659222553   15.15721055972801    0.37085619278803
C          -4.45698370029161   15.98030653565663   -0.61056953271911
C          -3.35381070211800   15.62711170174073   -1.41295599585917
N          -2.45554574683766   15.34059858482863   -2.06642321706317
C          -5.03397466008133   17.23721380295337   -0.88130478296745
N          -5.49910699622754   18.26141300394992   -1.10583468575986
C          -3.40086525485643   12.97583267687816    0.34040059118563
C          -3.38412428971314   11.81003186983289    1.08787960422724
S          -4.65814081354048   11.79524479972136    2.30587022219603
C          -2.49179350872189   10.70939506131930    0.96398191310538
C          -2.55672360211729    9.60119869684474    1.77729680185147
C          -1.71036879447821    8.50092193006813    1.69683649810677
C          -0.64031704183843    8.44100662587475    0.69942859858644
C          -0.38607079800305    9.41591614584721   -0.19961132157124
S          -1.28708939040582   10.87277340357858   -0.31133339501407
C           0.00994784719576    7.19645292952252    0.92296901428976
C          -0.59353585184872    6.51832097555294    1.98396414769060
C           0.03441760951146    5.27308871603385    2.22001746384749
C           1.07129781274166    5.05848530621655    1.36884357425330
S           1.33003765631986    6.33871208194464    0.23936849797909
C          -1.67839779766111    7.32975772213253    2.48991429138855
C          -2.55076004932669    7.07001191078322    3.56244921868020
C          -2.41107527949963    6.02622271855940    4.43449813135244
C          -3.20665218827136    5.67214018846691    5.53544141745368
C          -4.47849340025762    6.07120196160449    6.01304670243149
C          -4.83559507066655    5.41991525145702    7.23253512819081
C          -6.06644313623977    5.70478634486142    7.84490111581672
C          -6.92389860200297    6.59623939439632    7.25737524370818
C          -6.59092101016252    7.21412333603405    6.04329332042703
C          -5.39482672365934    6.95886317705052    5.42508693669360
C          -3.85877318450178    4.50956801385699    7.69311001771268
S          -2.51892997461404    4.47469979964553    6.59053739054026
C          -3.84582174718904    3.71537093465289    8.84975498121421
C          -2.78363345125594    2.89931882493811    9.11997322565968
C          -2.51621407509510    2.09105152125527   10.24018772663568
C          -1.29904773401101    1.42632950311550   10.27537208301966
C          -0.80035445250910    0.70722552885222   11.34249981112555
C          -1.64977443497648    0.38633113781558   12.49125805672929
C          -2.89351152649260    0.89176352409552   12.66188497149500
S          -3.64806781318330    1.99305860170602   11.57603829879213
C          -0.88129899943757   -0.51601350858947   13.28122987449042
C           0.36550135086290   -0.72783876808063   12.68839205598699
C           1.17427915807261   -1.60147324928465   13.44706881123813
C           0.53520729999750   -2.02550387725483   14.56868263106717
S          -1.06154429613504   -1.38211090204098   14.75514683606580
C           0.46199818395707    0.06430527053927   11.48988545203315
C           1.57950660240261    0.19627163757496   10.65238418981585
C           1.72650049237133    1.24023442284759    9.76655622156285
C           2.68441338976356    1.33758861480644    8.75743991804803
C           2.63225514350830    2.32350877224723    7.78485416469059
C           3.59979119042915    2.58492740393346    6.74849930279581
C           4.76527092940031    1.89529853425801    6.50291434504134
C           5.65409524160864    2.20058105085193    5.45482486615122
N           6.41552249813019    2.39236072380744    4.61565023124899
C           5.23284295398719    0.79085159054908    7.23967026211753
N           5.68446385329737   -0.11199599973924    7.78983353862659
C           3.14345798147227    3.74948664295068    5.98667227474041
C           1.89495578554059    4.17013696468113    6.52253329707897
C           1.50972276533496    3.26374903694043    7.61750423064815
O           0.43778137394192    3.28645002604119    8.20393258292849
C           1.23423394750774    5.26855086765415    6.05786673862723
C           1.81299349148684    6.02914616096204    5.01684252853248
C           3.04704565228960    5.60050412646932    4.45132636910002
C           3.70090003349613    4.44664961026934    4.94904293456481
C           3.61146257262894    6.36236262878423    3.40934605486533
C           3.00402332293923    7.50691499617929    2.96727746251658
C           1.80089487478617    7.93895591500568    3.54190372265846
C           1.21261839187486    7.20939155047918    4.53924053517803
H          -8.64980253760763   16.60505509531110    2.94700767458709
H          -7.07847018994589   17.32640302375865    0.98395140042777
H          -2.70020944257094   13.17029549636443   -0.45156415007969
H          -3.33225743527255    9.60732458059132    2.53232690822587
H           0.41286544887573    9.34885642351807   -0.92077620300642
H          -0.24654077399250    4.55196883178880    2.96505517484961
H           1.71875486142827    4.20450561053711    1.33087090008215
H          -3.34689779902322    7.78329781799946    3.71152467560538
H          -1.53637463741475    5.40265063650670    4.31528461493153
H          -6.33025357157379    5.21439773554377    8.76916605658345
H          -7.87268736671375    6.81986377939834    7.72126781825972
H          -7.29390714550943    7.89614699455704    5.58900667871572
H          -5.17112266054470    7.42340612045172    4.47931644354923
H          -4.68720055608437    3.77502374863533    9.52602047952145
H          -1.97451193982990    2.90483625058844    8.39929372167837
H          -0.71119338517434    1.50938446612081    9.37557600040772
H          -3.50447963200773    0.65366885555250   13.51812504986289
H           2.17091605574151   -1.90341623477190   13.18125028141027
H           0.90434632169944   -2.69220291380373   15.32331204367151
H           2.35204843663381   -0.56072212364123   10.71777861374680
H           1.04110272447028    2.06596738570115    9.84913636071861
H           3.47324998508527    0.59797771058191    8.72028757213927
H           0.29145820532384    5.56669846550299    6.49323082409002
H           4.63964269850650    4.15854236448381    4.50330074817969
H           4.54194989316947    6.03101032320915    2.97181612075077
H           3.45052735252270    8.08649688567768    2.17290096693920
H           1.33865845917092    8.84932655428808    3.18864361022809
H           0.27988361444314    7.53171748668877    4.97954457429009
