89
 SCF done       -157.095369615501          0.000771534707
C           0.10453537465765   -3.85340735486011    6.22221773484619
C           1.28115355327739   -3.23159813402547    5.93749267340615
C           1.08881050179511   -2.14592370945983    5.06037029008750
C          -0.25171938126477   -1.98115088108185    4.70169931188338
S          -1.26634194072096   -3.14001153705789    5.43321770402394
C          -0.35226987311615   -0.86745970891080    3.81350276354689
C           0.92324336752383   -0.33015370257205    3.63222600257450
C           1.87620341988742   -1.12083478188733    4.39633118617367
C           3.22954848755381   -0.94463904142053    4.45260596540805
C           3.87518038922557    0.08673503187159    3.74194103536988
N           4.40869865842856    0.92084859000457    3.16171861358940
C           4.06997464297404   -1.78314269293919    5.21223587341702
N           4.76256369975619   -2.46182762849050    5.82530647217356
C           0.92484533721333    0.79090657751331    2.78678857695070
C          -0.33420059735667    1.10106208767668    2.33191547094210
S          -1.54652222111802   -0.01434597960813    2.94553807189449
C          -0.71429043178531    2.13627836481452    1.40873879800202
C           0.04282847287103    2.62020155568419    0.35649062468170
C           1.42332391396741    2.29111576998894   -0.08304799782645
N          -0.72871959442400    3.51068245840457   -0.32517707224115
C          -1.96875683548334    3.60960397394591    0.24099994223389
C          -3.00035967733718    4.53608157393074   -0.29382330113847
C          -1.99893369497025    2.77181038064403    1.32963541793301
C          -3.08310027427695    2.56696975392210    2.27115522908960
C          -2.88363000195727    2.62232030331488    3.59405490513204
C          -3.84347093993652    2.25899635810418    4.60781041024476
S          -4.98203821614326    0.96678609787601    4.11064856023189
C          -4.78519740949405   -0.10416837447316    5.48888255128365
C          -4.72575893587880   -1.45922054270841    5.41809296566514
S          -4.57913679133168   -2.17442704643280    6.97699552753463
C          -4.56288720203869   -0.62571049182302    7.72911021260146
C          -4.68747962632446    0.37735326373210    6.82155310023833
S          -4.74270169000850    2.08826477551433    7.22263311548886
C          -3.80570403185163    2.76055265628109    5.86286974756113
C          -3.02443723015869    3.90714842540906    6.25876337934226
C          -2.71237584011778    4.93086062638760    5.44583681241245
C          -1.96247239162555    6.09883805675884    5.82505450803211
C          -1.12778692848694    6.81033392486674    4.98687987883590
C          -0.75850819184390    6.58437946725041    3.56472995289686
N          -0.57075983529668    7.81739468188798    5.71799848999909
C          -1.02543816460242    7.79606655280741    7.00143070189105
C          -0.61099083738571    8.83820926667116    7.97629036704983
C          -1.90459379342014    6.73156063926821    7.11707891635999
C          -2.72506941686227    6.36168066625908    8.23122394054866
C          -2.51386742687204    6.64086383598428    9.53173709686917
C          -3.39154945347313    6.22541847460703   10.57589595303639
C          -3.26773721204994    6.50379772606782   11.92266990409132
C          -4.29617847181353    5.93095327309366   12.67818177098825
C          -5.20379178807749    5.20719305130643   11.89888505667102
S          -4.80375822891383    5.23188504382541   10.23891411007203
C          -6.20372498889810    4.66479015616066   12.75788513799768
C          -5.92256910435577    5.05183541180305   14.07255060390666
C          -4.71869875345256    5.86120426943046   14.07203105681084
C          -4.10866499854068    6.44317461856493   15.14569939040766
C          -4.60956095517212    6.31425325210092   16.45728234379059
N          -5.00973225526282    6.21478532111886   17.52769998535056
C          -2.93827057691552    7.21825113861496   15.01726291246339
N          -1.98553682600828    7.84995291547788   14.91996929857210
C          -6.86701059103779    4.55648223238341   14.99334917497747
C          -7.82560339105204    3.81776673724411   14.37157763977289
S          -7.60909028399981    3.70320694537371   12.65305109628982
H          -0.05715418780773   -4.70150671253449    6.85657756334550
H           2.23057576090724   -3.53833167996051    6.33706030901613
H           1.79653369213225    1.36917948693297    2.54532847109615
H           1.63385164835244    1.23818335003819    0.09116867852057
H           2.16274204892938    2.87563654843132    0.46638491378144
H           1.54333647431505    2.50282467550497   -1.14395364670456
H          -0.43056820977162    4.01692263497266   -1.14309646433240
H          -2.67999272191971    5.57464426624841   -0.19840527825406
H          -3.92777978936732    4.41035117534092    0.25678817346015
H          -3.18908075381394    4.33658426475247   -1.34891274246543
H          -4.06699510870653    2.35446235341481    1.87356880048297
H          -1.90952420534606    2.91571718231950    3.97015860149398
H          -4.78209355111815   -2.07439016035673    4.54382434446294
H          -4.48350895008224   -0.54225374081661    8.79365973504722
H          -2.72715621547795    3.92748393803312    7.29759433006202
H          -3.03292348687523    4.89705533296434    4.41266473230218
H           0.20502043603738    6.07736099433435    3.48853462350756
H          -0.68643376655990    7.53261981863134    3.03276175576628
H          -1.50284802365836    5.96149931573075    3.07605024476104
H           0.08870517505205    8.48860956274642    5.35770740141689
H          -0.21132175096663    9.70602118921348    7.45433459323970
H           0.16049360841264    8.46227477497299    8.64979205549808
H          -1.46182020264317    9.15246972261354    8.57759839115766
H          -3.61251527801339    5.79600922374707    7.97330567803881
H          -1.63489426930104    7.17734518226856    9.85554915925604
H          -2.46636763257517    7.09719265527105   12.32407603506145
H          -6.84293048457799    4.73307120675455   16.05316195903105
H          -8.66491277256306    3.32021875976994   14.81426761927223
