94
 SCF done       -183.182181728690          0.000803397131
C           5.34782892973988   10.67241487485326   10.28838489502880
C           6.27073953972340   10.45207035216695    9.31444477148227
C           5.71464548413394    9.75329005433202    8.22421451597920
C           4.35579946817158    9.46068869416270    8.41366199753758
S           3.77473839540063   10.04007439946859    9.91486762629196
C           3.88030559080183    8.75719228001964    7.27737851265034
C           4.94151122922722    8.60644200814022    6.37215673007896
C           6.13021594678539    9.23285902326758    6.94095668728755
C           7.37021375375205    9.30809519689014    6.36907511216033
C           7.64505656470008    8.75788074694622    5.10159517046449
N           7.87076616406002    8.31059151528079    4.06927896768830
C           8.45395748066443    9.94258421206663    7.00817943136137
N           9.34038497752779   10.45810870513762    7.52275181995845
C           4.58077734512838    7.91935837357890    5.21590854926387
C           3.24887327181872    7.54065730212462    5.22410499992552
S           2.43163409081330    8.05238233056618    6.70056788459457
C           2.54210668042062    6.82394351673036    4.21904530531425
C           1.20673284827146    6.51117137106123    4.32833211591315
C           0.46908297012233    5.81000981991007    3.38109139472117
C           1.08614269800486    5.33180246169275    2.14329531108235
C           2.38355566005190    5.52462816089210    1.82092017822616
S           3.50362413876097    6.35976754903367    2.81813504122035
C           0.04260688634356    4.67149740615390    1.43724563403676
C          -1.14630580437561    4.72714737273365    2.16793502988132
C          -2.20152989968371    4.07565657168727    1.48999000289632
C          -1.79528723272466    3.56021870639864    0.29998002132850
S          -0.12577095321035    3.83754994884403   -0.05414855141550
C          -0.89784317446523    5.44233719291305    3.39749074846861
C          -1.77602125741470    5.75456230132693    4.44734075396882
C          -3.10674702342526    5.45173517579512    4.52761045535779
C          -3.95150977371660    5.79259292455104    5.59499252337841
S          -5.63385393630596    5.32013612993719    5.50109525815761
C          -6.04539151732003    6.03574467658849    7.04216303630892
C          -4.90199829886394    6.60022978909622    7.59035157931561
C          -3.72585289086456    6.48193306706433    6.79856128886475
C          -2.62074429364265    7.10906863057687    7.41660198196630
C          -2.93408388576674    7.67310201625328    8.61905033238462
C          -2.07045473419937    8.41711345057671    9.52683257920853
O          -2.42461172723967    8.87596384602223   10.58849098512592
O          -0.82469079583019    8.54041459358148    9.03864622945262
C           0.08435162861266    9.27190636503709    9.84651779311637
S          -4.60719277143649    7.46107290912417    9.06864484876856
C          -7.37184729683956    6.03252585349990    7.54137159158997
C          -7.68853586775110    6.59157377432225    8.75804625444274
C          -8.96662056078356    6.68313593748542    9.29336663007553
C         -10.10663636719168    6.00834200392520    8.65920932072768
C         -10.03270443027995    5.39386119338385    7.45930523669084
S          -8.60292761457633    5.31424643954111    6.50440083946777
C         -11.18122008749172    6.15821748402857    9.58024247449771
C         -10.75054360831164    6.87908092469990   10.69816472017044
C         -11.78411424935833    7.06600100316089   11.64252676411828
C         -12.94525937314979    6.49439611595073   11.23068739260551
S         -12.83777968679777    5.71407505088966    9.68708381958279
C          -9.37404727062042    7.24753256692362   10.51830747793362
C          -8.57117122864858    8.01297149969375   11.40363981715127
C          -7.50651169864704    8.74671136714706   10.98136892253035
C          -6.50987326954648    9.34824199750014   11.78501088088679
C          -6.30065956840366    9.28492542203472   13.15517295599881
C          -5.10485674100098    9.89395922519337   13.52773769628343
C          -4.39419556348911   10.42527208544656   12.43935884287439
S          -5.20605433836122   10.19980004875833   10.96397009770594
C          -3.17430139706232   10.96874597993822   12.92106777365188
C          -3.11963896827818   10.79241104960717   14.31005380212597
C          -4.32726264737815   10.11961002901355   14.74220376443752
C          -4.67396724457184    9.76472508949360   16.01485999344844
C          -3.84654838029659   10.03402640054877   17.12378725337881
N          -3.17994980005194   10.25237066657186   18.03164612690863
C          -5.88692322980901    9.10959448536153   16.30714649759544
N          -6.87339266345590    8.57873218056179   16.55437469807420
C          -1.92681105156970   11.29278293239848   14.86846069124558
C          -1.11606067702808   11.82232637195501   13.91240481086433
S          -1.77681768231898   11.72620424122499   12.30909592144586
H           5.48351020527266   11.17442253586348   11.22516237306268
H           7.29400875395611   10.77405175990699    9.37847443851752
H           5.24401582070072    7.69775443473294    4.39921342980063
H           0.71220627477303    6.84694543323065    5.23045729532348
H           2.81563289546482    5.16306197699522    0.90138569842867
H          -3.21153775399902    3.98022380964439    1.84312743377495
H          -2.38473859051748    3.01899355065414   -0.41404689315778
H          -1.33455575941059    6.29545407221052    5.26865270558945
H          -3.57750017308593    4.91216272040388    3.72012613802056
H          -1.62378608402863    7.16695078361774    7.02404987012956
H           1.05470069548592    9.18314330999111    9.36462180872927
H           0.11632301084939    8.85724878406675   10.85611992857931
H          -0.21961569223680   10.31944199823587    9.90606450490344
H          -6.86907275198575    6.95608545313139    9.35590268977467
H         -10.87918206827422    4.91235599740237    6.99577363217347
H         -11.67685875477102    7.59071108069855   12.57435624000343
H         -13.88779345729352    6.47732889143951   11.74214240893737
H          -8.83890025755037    7.99838398101376   12.45142200702741
H          -7.37013983962563    8.88752723481810    9.91809947696720
H          -6.98136312361135    8.80061592723484   13.83088433207741
H          -1.67861506906397   11.26312554652433   15.91390594798907
H          -0.15233749916440   12.27233527952664   14.04271190919246
