134
 SCF done       -222.631302160041          0.000771906878
C          -3.25952625255078    3.69180130903469   -6.28894199233714
C          -2.62495620862867    3.41786801708786   -5.11653794507506
C          -2.68854893678368    4.51221592448344   -4.23164956295531
C          -3.38305473198970    5.59712339404430   -4.77278952270617
S          -3.95224171196348    5.28019116802228   -6.34922440416632
C          -3.39380103141430    6.65533674001693   -3.81205199177790
C          -2.70100702121785    6.22847293913221   -2.67802808986851
C          -2.24879950159991    4.86098250018213   -2.89157241901990
C          -1.58932434764664    4.06768619551940   -1.99829048227718
C          -1.27130855217986    4.51352506895756   -0.69870391916485
N          -1.03263640872083    4.87470747385860    0.36347732032284
C          -1.20856833645513    2.74458736660576   -2.30350644074471
N          -0.89895473634577    1.66755561633337   -2.54738060352154
C          -2.63263273203100    7.21176577720235   -1.67900049714019
C          -3.29529559814547    8.35649705308020   -2.03661923681568
S          -3.98019532899343    8.25107844107717   -3.65095317401794
C          -3.36070403471344    9.62011491755611   -1.31998826954460
C          -2.83809165198908   10.73334523629706   -1.90563412115776
S          -2.85329830687943   12.13339372172408   -0.91328140796728
C          -3.60926902746162   11.22101527579291    0.35554344509850
C          -3.86909447138663    9.88464521519546    0.00461207060057
C          -4.67087616672897    9.09766760897188    0.86886329269363
C          -5.13095391409202    7.72995817994339    0.43276529270851
C          -4.36052183650939    6.61316299551508    1.14260802913080
C          -5.06457617786554    9.60482287050848    2.09816827545240
C          -6.16825681473712    8.95987452730381    2.89214296615620
C          -7.51321963260253    9.51839992599336    2.41429636829012
C          -4.58530592497845   10.86230315135051    2.53898985329234
C          -4.73369946929644   11.53073661029120    3.80769399494560
C          -4.34030518179111   12.83274515202443    3.73650071344068
S          -3.68632039552710   13.30515470512396    2.21512406003890
C          -3.94743843982530   11.69945244267183    1.61071331487601
C          -5.01839990902558   10.97421289254345    5.12774493657833
C          -4.44263568554152    9.86985159520367    5.61435873955823
C          -4.46460334252189    9.50934559671446    7.02817620966620
C          -4.27109053648359   10.49700273231356    7.94710315252846
S          -4.05977766313101    9.95385518756182    9.56371500478453
C          -4.23891249384089    8.31399083910182    9.02504016229580
C          -4.49748764081607    8.20390729823887    7.64975317242195
C          -4.79204405334868    6.92133644119445    7.12381485632645
C          -5.31222787242712    6.81811912667110    5.71403241308203
C          -6.83568362036021    6.97752479513559    5.72290231411076
C          -4.72211476916647    5.79381598382164    7.92924884678114
C          -5.05097567393813    4.43295403543222    7.37034428333881
C          -3.79147876529973    3.72615907997206    6.86768072812695
C          -4.31841454337746    5.90256777009805    9.28410448508788
C          -4.03946821605126    4.89887350672867   10.28602618538609
C          -3.67881443880823    5.45349718452492   11.47449869293314
S          -3.67163844942818    7.17384944748170   11.49564570471808
C          -4.12108665725189    7.18552444678656    9.81948832296042
C          -4.03897208382969    3.44449082244495   10.15607594161706
C          -3.00540505902940    2.68833738260371   10.52939268447455
C          -3.04144706713511    1.22900218327185   10.44601581470832
C          -4.05715207759220    0.54905436775938   11.03974668901492
S          -3.97070855582783   -1.16324835915139   10.87341308652384
C          -2.52395215925653   -0.98862942540691    9.93122053739566
C          -2.11841547967365    0.34473006841948    9.77566894123423
C          -0.96031471056467    0.62247992654213    9.00947591522555
C          -0.55998809094730    2.06623538911984    8.84822497237376
C           0.44701801862609    2.50339189447124    9.91375793310813
C          -0.22959810626974   -0.40859170926539    8.43101067016435
C           1.07923730862474   -0.11823886145066    7.74044650603203
C           2.25988903131997   -0.72019090258195    8.50541836130429
C          -0.68492223433398   -1.75040084696818    8.53636855197735
C          -0.17530365222233   -2.98927846709780    7.97898734796284
C          -0.90257798974848   -4.06895576453713    8.39601310687858
S          -2.22509856313477   -3.69785257989791    9.41909866255626
C          -1.81811177531847   -2.01205430640159    9.32258994149136
C           0.89922638114841   -3.15952232436843    7.02966912058117
C           1.62875985535149   -4.28367846414878    6.88953164397806
C           2.66078060369969   -4.44368189743175    5.91712565797887
C           3.17509060657297   -3.52150481751186    5.02584234692714
C           4.18821164001729   -4.06370047757330    4.23224787131328
C           4.44760840659539   -5.40911785907188    4.51604741429653
S           3.45235202224854   -6.00484737734438    5.76837304935522
C           5.48373498622591   -5.86021993792863    3.64735610486112
C           5.87154063396811   -4.79771874481374    2.82314208551082
C           5.08110525233507   -3.63059784597579    3.16312171972434
C           5.15625895213676   -2.38220044732101    2.61642290020116
C           6.06252437631118   -2.06640283800442    1.58328777507366
N           6.79849370088502   -1.80487066745860    0.74340395523469
C           4.33819084572267   -1.32316366643460    3.06081904547291
N           3.67651032120197   -0.46207433317652    3.43088460452619
C           6.89671918240697   -5.15847107082194    1.92653331227355
C           7.25798828130846   -6.46069071562063    2.08427135704010
S           6.36788025853352   -7.28367606155412    3.32565845403116
H          -3.37013865427762    3.05400267243310   -7.14274160730836
H          -2.13854960323209    2.48335303654218   -4.90443293475091
H          -2.10932655820954    7.10718176268605   -0.74765772923043
H          -2.40391510820595   10.79256965803884   -2.88536621718929
H          -4.99838497625058    7.62819345318991   -0.64285339493263
H          -6.19664863045468    7.61448147325017    0.63422075331850
H          -3.28879935648916    6.74449744279903    1.02869270719894
H          -4.63344873308514    5.64602278736227    0.72587393038099
H          -4.57583683076415    6.60021246616217    2.20793521683721
H          -6.06591235449496    9.19918851265160    3.94610613629000
H          -6.16527742088103    7.87866281509425    2.78443152805000
H          -7.54892689481648   10.59432595405804    2.56994060025645
H          -8.32746779795883    9.06170140289021    2.97261674082258
H          -7.66606296529683    9.32476988555556    1.35472436167907
H          -4.34139858677207   13.54697142502597    4.53734523485977
H          -5.61800070478961   11.59691052158926    5.77939041581267
H          -3.81297083117224    9.27140259327632    4.96780191014952
H          -4.17711670258388   11.54620163807428    7.74487137385519
H          -5.03719066034732    5.86653331039555    5.26206437688356
H          -4.88061005462830    7.59899189760315    5.09731068488929
H          -7.29637034665764    6.25050710180879    6.38819199978704
H          -7.24406612449110    6.83883578997787    4.72486546015413
H          -7.10562312693876    7.97136187462364    6.07339559860916
H          -5.76889637137696    4.51171359697183    6.55668225331232
H          -5.52717847375777    3.83193173572871    8.14083651941406
H          -4.03162029308134    2.72892839697722    6.50585344662415
H          -3.06372083753254    3.63531242902224    7.66906879223829
H          -3.33431266073509    4.28961961463494    6.05727117495186
H          -3.43380932892194    4.92435702046468   12.37506051991506
H          -4.91573815359804    2.96315612877116    9.74820652345830
H          -2.11392060619684    3.14848680456825   10.93264641492545
H          -4.86070885438453    0.97317128664182   11.61036343802903
H          -1.45529143088903    2.68144590096385    8.92894909616346
H          -0.14910904457646    2.24681677687107    7.85441616802089
H           0.06697185512669    2.28501295123430   10.90967006027130
H           0.63509913191684    3.57239509442373    9.83846415150110
H           1.39136669042490    1.97889902914178    9.79492454879312
H           1.24574466084273    0.95256215272473    7.66897930311747
H           1.05925169345431   -0.49300033228380    6.71724448191244
H           2.29709925222751   -0.31436986659408    9.51428222188106
H           3.19204136717428   -0.47738853364048    7.99991134938057
H           2.18057496091048   -1.80140540756829    8.57853090347125
H          -0.75774532550315   -5.09006399193046    8.10260560120077
H           1.09715332973243   -2.33823472627833    6.36244086608182
H           1.46371002429950   -5.12927939221561    7.54290565754822
H           2.83553865176634   -2.50480834071746    4.96314269412830
H           7.34313216113631   -4.49765111706699    1.20596128228721
H           8.00532478006424   -7.00707342985502    1.54491817521627
