98
 SCF done       -184.607991334495          0.004291758494
C           2.05448474861015    8.44109567158099   12.37798390918144
C           2.68281801404355    9.48170897483387   11.76649827967091
C           2.26445158603890    9.62054022160848   10.42852117932801
C           1.31388771484453    8.65241574179534   10.06548885344706
S           0.92883429136869    7.60083549370703   11.35781696851098
C           0.94985067876459    8.86161825579502    8.71162741892808
C           1.67426736281136    9.96178021237623    8.22045256978685
C           2.50833653171378   10.48504690505011    9.29477733577715
C           3.29250900168729   11.60726490730920    9.24778089532976
C           3.39803804705569   12.40162051055733    8.08941875190822
N           3.48167599667995   13.06690265706031    7.15832690232502
C           4.01184914857588   12.07056080742958   10.36712081614299
N           4.60006515844287   12.45932393229043   11.27238642352323
C           1.37545306685242   10.26098893655190    6.89311840091647
C           0.42846540766076    9.40137831153225    6.36166074038003
S          -0.12671801897255    8.21865008745429    7.54689954399818
C          -0.09449856531620    9.40769934354571    5.03654535306029
C          -1.08786559546343    8.55143093563245    4.62129099978738
C          -1.64173253277388    8.53448257964074    3.34347438450478
C          -1.16895120098227    9.47166076913137    2.31398316107302
C          -0.18428513120287   10.37984405359104    2.50008971367435
S           0.64170663400022   10.60414007725425    3.97747273760972
C          -1.98597222230596    9.23860858228551    1.17621993696834
C          -2.92952352020206    8.25670660072139    1.47480425772857
C          -3.80260481328342    8.00862530267118    0.39221399335333
C          -3.50612766070094    8.79457987938238   -0.67540205412168
S          -2.16402093681144    9.85966047436020   -0.41679670742640
C          -2.71773718086701    7.78692911101229    2.81960333162782
C          -3.55714880319436    6.80601509604184    3.39213972112247
C          -3.38133823713601    6.03825745320697    4.50085120162468
C          -4.36898391176216    5.13049930818935    4.97619191699528
C          -4.11225077865572    4.20030823584286    5.96227594276203
C          -5.02999083273329    3.27252445821782    6.44946775742153
C          -6.40289642116685    3.23112598932633    5.94205301318752
C          -6.89055553065595    4.05745547668304    4.99242571841917
S          -5.96101448883109    5.27777462410300    4.23398734683534
C          -7.03761927968488    2.17384090962729    6.64658320167085
C          -6.13698739419784    1.57372015997270    7.52731190513299
C          -6.75718631783897    0.53754425265846    8.26468645731389
C          -8.06329504212192    0.38153933881849    7.92226204152591
S          -8.60663488965762    1.47796618252607    6.70160179709592
C          -4.86321728434478    2.24803415879752    7.41095753696644
C          -3.66378613249404    1.96678135392880    8.09506823755565
C          -3.45710086356737    0.87031422293767    8.87841603682651
C          -2.29423919919058    0.55388528271043    9.62432484080275
C          -1.17042286829049    1.34285356663632    9.76932695256806
C          -0.06851128984217    1.02118178234666   10.55403085726365
C          -0.01805317905121   -0.22335320314481   11.32734034779379
C          -0.98845620652397   -1.16289595487087   11.32722339037853
S          -2.43423111302908   -1.01290578475554   10.42362539784027
C           1.21562069050201   -0.18268124934021   12.03036557825014
C           1.89525091817455    1.00138055497297   11.73998508983074
C           3.14918782172831    1.04928844565611   12.39321235811553
C           3.36967362163898   -0.05881951940637   13.14796449849146
S           2.08118129462696   -1.21223131878275   13.09950718754166
C           1.10365954162347    1.77196357163414   10.81090571981770
C           1.42718305432756    3.01410248076984   10.22890321270032
C           2.41303468167174    3.84537051152877   10.67251786417391
C           2.82875614833624    5.03552954230060   10.04015082994658
C           2.50567802226609    5.53403772963603    8.78179014138226
C           3.19287664044000    6.70539980984512    8.48715573036318
C           4.03752316844778    7.13222393908927    9.53054396777311
S           4.00403962511369    6.05853312601444   10.86551950140024
C           4.70207717072937    8.30608335561574    9.11911678769513
C           4.30167643387614    8.61429226327172    7.80152683891069
C           3.36171603703757    7.61402626116108    7.35732875752493
C           2.79769034096846    7.48804743497958    6.11361169251730
C           3.09254130819584    8.37381037782459    5.06146468503427
N           3.31053311452611    9.05965506389464    4.16769839467539
C           1.87189197669920    6.47812075622527    5.79499974984913
N           1.09101415654629    5.68262868797655    5.51746389492144
C           4.95444940769328    9.75740386770922    7.30055072744350
C           5.79358932403372   10.29938828287221    8.22503804489769
S           5.85884513609656    9.41230333713510    9.72322156446685
H           2.18010244622850    8.10419612993670   13.38751510982185
H           3.40785514127074   10.11006030828723   12.25173378495985
H           1.82368047553673   11.05639283041557    6.32571167915672
H          -1.47310248370805    7.86699265695072    5.36418583339182
H           0.13931798217385   11.04952062827783    1.71821986073384
H          -4.60620881599002    7.29388249108583    0.39614934438838
H          -4.00097671046527    8.82208801105329   -1.62684395576252
H          -4.46549623470822    6.63689597621246    2.82397909853167
H          -2.44787129694238    6.04855124480111    5.04330301592223
H          -3.10594183903325    4.19434013732259    6.35940283711748
H          -7.90838490401067    4.00218482086955    4.63990253452640
H          -6.29223536141456   -0.06643514327408    9.02195585389180
H          -8.76438126002702   -0.32632737917304    8.32006948765853
H          -2.85992185588928    2.67699096527736    7.95892474092173
H          -4.24641235873733    0.13712811651543    8.94466756953169
H          -1.16649419312205    2.28767184178799    9.24501163292278
H          -0.91890593445130   -2.07195960364247   11.90337811681123
H           3.87138854241079    1.84055480489017   12.31049235863111
H           4.23134705301780   -0.28416721557011   13.74560306914141
H           0.83814961620694    3.31864000366339    9.37436151479494
H           2.92545245532609    3.60307634466397   11.59128953703452
H           1.81969240142665    5.04220410843179    8.11676834103481
H           4.80204972473425   10.17187627246538    6.32021128893860
H           6.41454182953041   11.16713809033090    8.12264481156823
