120
 SCF done       -213.698496661895          0.000785606036
C           6.83172552056601    1.49523560637248    1.23974593170951
C           5.81475905491794    0.75988842673399    0.71243141973232
C           4.64121706427890    1.52821347952682    0.58295059674660
C           4.81236331286290    2.84209891266561    1.02309413313409
S           6.39378786772170    3.13480184148645    1.59131740838730
C           3.57738729332332    3.54252449905131    0.85249010017711
C           2.64033357854836    2.66223649979524    0.31051088806596
C           3.27284454813521    1.36576243258791    0.11789350898833
C           2.70189274383381    0.23807162149196   -0.39568366271232
C           1.35635113224565    0.20226236389778   -0.81704428884768
N           0.26279221711723    0.16819452990517   -1.16068143413034
C           3.41740233570244   -0.96871595092324   -0.54044465945194
N           3.99352697261371   -1.95293577552659   -0.66106675147023
C           1.38582303095734    3.26439799696515    0.10699599900446
C           1.37133398375283    4.57069319878797    0.51481915264880
S           2.93603083170457    5.10132881948039    1.11141049134905
C           0.27871100336370    5.52849424350483    0.35209953924330
C           0.10057821382525    6.10011515059152   -0.86856523293309
S          -1.21985193275932    7.19556257700082   -0.95541760955301
C          -1.57644409393080    6.88691934378907    0.71420064315522
C          -0.69505922574213    5.97743355533501    1.31584334571263
C          -0.87347572842190    5.65028885240830    2.68262210648699
C           0.10600189796982    4.68898412175043    3.30662654310922
C           1.23169273433268    5.41730460689614    4.04317541257307
C          -1.91233779929153    6.21490038308215    3.41228686370832
C          -2.03441539458074    5.95385302334818    4.89222851061400
C          -1.75145141617574    7.21599096990807    5.70986535187622
C          -2.84311074180573    7.08274110437082    2.77938056992152
C          -4.02835689456806    7.75606354001508    3.27513907519898
C          -4.59154587331847    8.55601133419014    2.32037605899492
S          -3.79614210057331    8.54403539052935    0.80409975031169
C          -2.62889468872407    7.42545654543276    1.43479189707103
C          -4.66146354707978    7.62298816773591    4.56662138645408
C          -5.43085162792550    8.56342339882398    5.14651880738235
C          -6.08216354193946    8.39301017009263    6.40258879667872
C          -6.94162829436802    9.28045939653689    7.01776528495650
C          -7.41740734143386    8.79615083650231    8.24041607841999
C          -6.90381835503500    7.53495247122428    8.56197692043386
S          -5.84749018053167    6.93731691787240    7.36273526034068
C          -7.45021684360765    7.12865709128543    9.81365016791169
C          -8.31394831537374    8.12931810711999   10.26847635689661
C          -8.31775390135479    9.21663105072967    9.30627010914108
C          -9.00697418521148   10.39105626668804    9.39091980798797
C          -9.83758319325070   10.69148569008145   10.49044704645058
N         -10.50917185974754   10.93668971628690   11.38718114987411
C          -8.92810430503168   11.38328035097070    8.39217666310924
N          -8.86835550389220   12.19122041493699    7.58055843943041
C          -8.92205714224631    7.80644396331498   11.49396795061417
C          -8.49744133567850    6.59980304722858   11.97687666002522
S          -7.36617128606621    5.80421798260553   10.88810910303371
C          -8.96171931526266    5.88744624001743   13.16325557301926
C          -9.81980494140188    4.84451874652698   13.00438775977153
S         -10.34407108601104    4.12453576236340   14.47310573371540
C          -9.36665943678934    5.24763243430263   15.36474547838336
C          -8.65397357215339    6.13925838671521   14.54962957565575
C          -7.75055311732230    7.04731521331744   15.15425808029416
C          -6.92024198708247    7.93364638334963   14.26119292306022
C          -7.52137453169800    9.33429784527908   14.12473838211787
C          -7.63196946023200    7.10528284143599   16.53699073317790
C          -6.63041828168098    8.03239175570675   17.17760354858273
C          -5.43202609131062    7.25707764761334   17.72840535542575
C          -8.40619765721415    6.24562279923153   17.36035291477378
C          -8.46679968016364    6.08919121259371   18.80002331235283
C          -9.28957844209820    5.06093948694606   19.16291248441558
S         -10.05369711490099    4.25111942164242   17.86026370731808
C          -9.24181863692614    5.30143907081045   16.74242688475135
C          -7.82459377926457    6.88429300425703   19.82436494577788
C          -7.41487442103318    6.38696012097082   21.00629458136479
C          -6.82490110094560    7.16417110985972   22.04811194273725
C          -6.55238100276484    8.51741531578964   22.09057146145222
C          -5.96314011016805    8.89862591909274   23.29867109205715
C          -5.78580176441840    7.82944061575363   24.18381136353974
S          -6.33993446803952    6.35450322043395   23.52995723025718
C          -5.18536794531993    8.32708504252580   25.37733463044446
C          -4.98836931046203    9.70518093557834   25.23780261875965
C          -5.46553822384058   10.11513635920594   23.93078408403417
C          -5.45274216870084   11.36996092635763   23.39438815317866
C          -4.94664889872394   12.48383187389118   24.09558344868097
N          -4.53626473310764   13.39262075695405   24.66186863493490
C          -5.94018348189100   11.63252018802076   22.09760685438478
N          -6.33413060134185   11.84269770895551   21.04091363185509
C          -4.39543153722581   10.28215961027718   26.37810539156537
C          -4.15963401946334    9.34909613239928   27.34002169177456
S          -4.64944693039430    7.74723837026344   26.88979530469366
H           7.83300959199574    1.17755648960432    1.45077282653022
H           5.90729969234291   -0.27399001549278    0.43448447873425
H           0.52150938275170    2.77021676226958   -0.29830374101540
H           0.69536778371741    5.92866513264007   -1.74507392227454
H           0.53769501944127    4.07244334022623    2.51976711778279
H          -0.40293103311496    4.00619033572004    3.98833250285653
H           1.70749182145584    6.14156678952909    3.38576796876043
H           1.98429824717520    4.70627837067995    4.37708111386007
H           0.85274090633896    5.94906883785728    4.91099548059696
H          -1.33087892009094    5.18796772590555    5.20609180433881
H          -3.02853805565339    5.57072302885905    5.12246740641147
H          -2.44919808589293    8.01238184640308    5.46709055213673
H          -0.74543595975370    7.57653189226689    5.50804888190786
H          -1.83499762145464    6.99792460076723    6.77214049208162
H          -5.48975547808985    9.13315839700895    2.41941620507062
H          -4.54142327242416    6.68612918811147    5.08799917115926
H          -5.58076368160351    9.52665916065667    4.67906892248885
H          -7.20889996423182   10.22748534971401    6.58529184711940
H          -9.64785445432931    8.41723927005299   11.99794380022027
H         -10.19555232886015    4.46449583913591   12.07371080516416
H          -6.85629702111933    7.48003595148484   13.27353352809490
H          -5.89957329690479    8.00397515078811   14.63928071784916
H          -6.94814612643668    9.92108022709417   13.41025714961260
H          -7.52486323331067    9.85787231457320   15.07701788634406
H          -8.54844053260521    9.27589763605424   13.77700527499610
H          -7.10941417438332    8.59976446393079   17.97331338500561
H          -6.26570086931271    8.76306628914264   16.46212377160100
H          -4.92566623629172    6.73013254056562   16.92225519471297
H          -5.74271674632316    6.52686197123688   18.47082564971208
H          -4.72513445251048    7.94091188631889   18.19286620304271
H          -9.53170194159017    4.76108025295384   20.16369426246158
H          -7.70674238078283    7.93860982992915   19.63731257155459
H          -7.50146161185771    5.32737241466551   21.20546339262334
H          -6.77076633578821    9.19105704838851   21.28341742692947
H          -4.15585097932651   11.32417983074594   26.48539960356665
H          -3.72092848964114    9.49580910723605   28.30646311124922
