135
 SCF done       -250.457802366429          0.000558360968
C          -1.24997386451874   -0.15657486525009   -7.95450804521400
C          -2.04253543503048    0.85468076763446   -8.40153532926609
C          -2.00472740020979    1.96146874144451   -7.53019703370699
C          -1.16647344870746    1.74624634883077   -6.42930899609730
S          -0.43510823678304    0.20433532547346   -6.46506548773285
C          -1.18873353778079    2.90723935270453   -5.60682319800519
C          -2.04226471778810    3.85010448274538   -6.19129199093876
C          -2.58227334919847    3.28617413251176   -7.42502683193908
C          -3.44374419679689    3.89044786702189   -8.29412188603188
C          -3.93543968975330    5.19525518434092   -8.08349128513189
N          -4.33649179857857    6.25751703099822   -7.92216836165065
C          -3.90056367389082    3.25151617756983   -9.46538937227991
N          -4.27497699225577    2.73818769536959  -10.42023192430537
C          -2.13583235275449    5.03338704957928   -5.45695866101968
C          -1.35504642227233    4.99830891807639   -4.31634017390628
S          -0.49391437120026    3.47436413001875   -4.15108101013136
C          -1.19706356639354    6.01325226097550   -3.34034753596980
S          -2.08566055092895    7.51933423072630   -3.48287915025844
C          -1.35383566636503    8.08892833629723   -2.03859558328472
C          -0.47216456085383    7.16347438682777   -1.48152305630156
C          -0.38635079088735    5.98965644606609   -2.21761141894740
C           0.15081435659615    7.71086646149953   -0.21865149713449
C          -0.21800287903622    6.85721884813614    0.99778291504530
C           1.67089643483244    7.83141432389708   -0.35519337613261
C          -0.50631594702087    9.07034140535390   -0.15556618183720
C          -1.37690215052509    9.24852514881915   -1.23050197930815
S          -2.15551019245166   10.77650845333843   -1.20471312474252
C          -1.30058244866403   11.19612302693752    0.27002856464264
C          -0.46349752220312   10.17183781486381    0.68748745098827
C          -1.48573433225792   12.44711333603526    0.91054646853056
C          -2.34327452265269   13.40622763922372    0.49259118935316
C          -2.53448083112886   14.66374219367954    1.13067834373186
C          -1.90541549937737   15.19563241108966    2.22315190668843
C          -2.36318349955412   16.48450139901211    2.58063745625105
C          -1.90850007125853   17.30964557970771    3.63070140721178
C          -0.79063291132548   16.94943156391770    4.47909493610477
C          -0.63505143751251   17.19182536525991    5.81372401096507
C           0.61927655589267   16.76968079373730    6.30518999355808
C           1.43813916949724   16.21332131781259    5.36743037773612
S           0.64354188101639   16.19704320961644    3.82906540766285
C           2.81258691803016   15.67468831050967    5.52831169168758
Cl          1.06382016042572   16.95171400511160    7.95926705279700
C          -2.57149043662868   18.52110271024249    3.79895514224917
C          -3.62168169471872   18.96062665922259    2.95504371234762
C          -4.04578194031853   18.15725414797820    1.87811825266793
C          -3.41302995317274   16.92653950302861    1.73573164543881
S          -3.75134807892428   15.75405471271662    0.49562218495514
C          -5.06453299195261   18.58692596083554    0.94157850951995
C          -6.03762310780514   17.83180046910324    0.35221286441526
C          -6.82167201922163   18.56815087037129   -0.56181786954178
C          -6.45913602433862   19.87656606709819   -0.69386089812946
S          -5.11740228740899   20.22406715132000    0.34216735890797
C          -7.04910659908540   20.92482128321229   -1.56427446003176
Cl         -8.12776723147493   17.85819211438331   -1.43123672196000
C          -4.12519531836228   20.22256606471955    3.35400027297196
C          -3.48016506473026   20.75718812909702    4.42920402328084
S          -2.20650396234857   19.71057285860616    5.02016846755628
C          -3.74854174433736   21.99436008016287    5.08057059033973
C          -3.09707166162231   22.52633865996590    6.15439048823426
C          -3.61867468871311   23.77120632852231    6.57884727308530
C          -3.17474552208003   24.58137284309406    7.64518810402347
C          -2.00064372787035   24.25863142259984    8.43042012209662
C          -1.80770601850095   24.44460156283505    9.76927511054351
C          -0.51279101548370   24.07418361465837   10.19176643308498
C           0.29953804137391   23.61676356367359    9.19622891998617
S          -0.55187594394149   23.62983408701244    7.68921311685605
C           1.70562855201962   23.14726503140173    9.27923884477879
Cl         -0.01510870714808   24.19801019084322   11.83601303541669
C          -3.91597994568569   25.72972652133653    7.90005644492543
C          -5.03690517644029   26.11876806869877    7.12332709550709
C          -5.44244843165889   25.33966500412258    6.01821018378745
C          -4.73343723821548   24.16592918749774    5.79681609767152
S          -5.05947710051376   23.01553816678632    4.52908668199122
C          -6.53769252383105   25.77356587154365    5.17609707917390
C          -6.82710893789225   27.04412832006935    4.76557045010391
C          -7.99975403859060   27.11158336032656    3.98347655354637
C          -8.61428917776264   25.91025942708655    3.78296963655778
S          -7.72645404971165   24.65022891276368    4.57291148357383
C          -9.86034956295684   25.61740916740403    3.03052965563765
Cl         -8.59556367384829   28.59953927513745    3.35333724809397
C          -5.63388397530895   27.30311392918006    7.60232551020954
C          -4.98963950649877   27.86183958467029    8.67656320228042
S          -3.60379227049616   26.89086017634074    9.16006288672987
C          -5.27753780047182   29.04163464495887    9.39779826301649
C          -6.23106603294393   29.97657995278698    9.10609351327073
C          -6.48155062902091   31.15701834423227    9.86222270585550
C          -7.46371914140432   31.95073481542789    9.36673579748101
C          -8.06234211644970   31.45472349135110    8.18031113372683
S          -7.31971075865048   29.93092342955487    7.72794426893455
C          -9.07199017812156   32.01023222252145    7.43554797133434
C          -9.77140878299624   33.22499205690816    7.68988433919627
C         -10.72254072910627   33.51972366386939    6.77823211605723
C         -10.85101546104444   32.55633984836346    5.72084007434263
S          -9.67935198154129   31.25397752327611    5.97592522198684
C         -11.69954396646431   32.58566819807789    4.68500585291609
H          -1.08344298122397   -1.11317035333940   -8.40747251786805
H          -2.62055105602427    0.80517637232680   -9.30616051637075
H          -2.73368318836283    5.88636210282449   -5.72326558256974
H           0.23067669747123    5.14338128563048   -1.97254456731685
H           0.19830494058477    5.85831316710696    0.89327119367918
H          -1.29887674028310    6.77719392534231    1.08896446593131
H           0.17583664816759    7.30932455436802    1.90468398350467
H           2.11444835446215    6.84638770831254   -0.47769316155696
H           2.08968646823436    8.29767498420596    0.53317746486866
H           1.92506025164214    8.43900648453670   -1.22077266568081
H           0.14056194986232   10.24929379264642    1.57370117911008
H          -0.88496461534418   12.60753830070719    1.79526075289759
H          -2.94438632477359   13.22421345915698   -0.38893288446233
H          -1.13943985576417   14.67220720224404    2.76289028054853
H          -1.39251458474264   17.62228137341113    6.44131700868487
H           3.09088584627388   15.69117374125054    6.57912170314427
H           3.52806349406522   16.27404697996402    4.96527622462016
H           2.87031098486944   14.65120869617962    5.16016694777450
H          -6.22143306575114   16.79837707658493    0.57902149761373
H          -7.98773808686708   20.56869525182700   -1.98179622740147
H          -6.37252945058558   21.16816765044823   -2.38403699784653
H          -7.23058713430390   21.83632877078045   -0.99727110706415
H          -4.94770557609607   20.72363672597873    2.87765544582197
H          -2.27615822944922   22.02103652033508    6.62930721186151
H          -2.56335640649578   24.79811227066310   10.44539211596100
H           2.05513649580633   23.21898941524693   10.30618389916363
H           2.35076126475105   23.75145498301505    8.64201600922947
H           1.78403141224353   22.11164964150268    8.94948231444056
H          -6.21290816567903   27.90067786169410    4.97207674607864
H         -10.15536960382315   26.49318073965491    2.45771925744405
H         -10.66927520280486   25.35793133125749    3.71393436746664
H          -9.71079179445707   24.77823435782182    2.35349198302778
H          -6.54078485529528   27.69959732552623    7.19055672977473
H          -4.65984182055199   29.23329883420147   10.26532574233569
H          -5.91539366770961   31.37220577506938   10.75148169610502
H          -7.77520077577240   32.87838163360724    9.81249443588962
H          -9.53948440308409   33.83424846123525    8.54556703561886
H         -11.35215116404635   34.39148511711752    6.80382661552884
H         -12.39652215681534   33.39680159061689    4.56859601921304
H         -11.71427817606036   31.80731903056254    3.94427322788115
