99
 SCF done       -200.772422022783          0.000563782024
C          -9.67803432166214   13.16385476663140    1.36364125233021
C          -8.92968555120393   13.61598788143337    0.31991750635022
C          -7.72107074910723   12.90180074220794    0.20834143000142
C          -7.59398038763906   11.91188138732061    1.19217567265890
S          -8.94136030500028   11.86239821495400    2.23962240069697
C          -6.35425701614364   11.24152886829133    1.00458933131416
C          -5.70184403736783   11.81324325256450   -0.09736829579782
C          -6.54284822762326   12.87780661726529   -0.63511034676708
C          -6.26892380921928   13.67323743637157   -1.70977283366553
C          -5.07609981429594   13.54414024296258   -2.45104471312864
N          -4.10571344200593   13.43855786981466   -3.05322567730449
C          -7.15919458796354   14.67378981198891   -2.15227185671322
N          -7.88067047129793   15.48721188082579   -2.51610770566556
C          -4.47209807830337   11.21813634549060   -0.37132975821113
C          -4.18306332904037   10.19043015772706    0.51020931406582
S          -5.45954777370549    9.96907013102914    1.70557313669781
C          -3.02777592841807    9.35811328724465    0.53267255983634
C          -2.89481977926349    8.31300720734382    1.41933592702514
C          -1.79759649449524    7.46269107211270    1.49923046014023
C          -0.70401704226030    7.56696626316524    0.52599576661239
C          -0.62005569797250    8.52550779673655   -0.42295613862342
S          -1.78784756045285    9.76208543838611   -0.64399231893894
C           0.16656730076968    6.47707615664478    0.80990952042341
C          -0.33622607336008    5.74447583480562    1.88328219219946
C           0.48767161838628    4.64662866737441    2.21249654677848
C           1.57039498193502    4.57482273671895    1.39421646021498
S           1.63733778364591    5.82965510036634    0.20264588374702
C          -1.55220884057081    6.36011829797820    2.35537412518554
C          -2.26919062222248    5.87838465238584    3.46512326023035
C          -3.23926765073105    6.55270466422248    4.15483991965920
C          -4.00957203756423    6.07327119113844    5.23626510559478
C          -3.96238125212691    4.77283912283313    5.81616713014346
C          -4.78692437344892    4.43611948657752    6.94043973012281
N          -4.71880978759550    3.20571824147999    7.47872373322143
C          -3.89963151435852    2.32741464667476    6.96881567221850
C          -3.09810536583067    2.65572942526323    5.86279882749549
N          -3.13672791853305    3.84015090431483    5.31001861160062
C          -5.69601802164966    5.34011540565247    7.54245385848000
C          -5.77406075828955    6.61935566201038    6.95007405512566
C          -4.94667949987307    6.96493264795210    5.82142326333889
N          -5.17758903940495    8.21088112085659    5.40362574923026
S          -6.30943021671802    8.87660718166427    6.32939165440387
N          -6.56759911526306    7.62961842144116    7.30766586393668
C          -6.46273429647234    4.94709330953146    8.66626579412952
C          -7.36815653010194    5.73233442755235    9.37422327380018
C          -7.94162335772253    5.03827358450574   10.42812891407162
C          -7.47768174817474    3.70759927744861   10.52527645396314
S          -6.32167853632749    3.32486320883944    9.31292874427768
C          -8.12196321315965    3.09537500084791   11.61934339129573
C          -8.98744733809118    4.03762153859049   12.22638728821229
C          -8.90462571498167    5.28467885516199   11.48957828464179
C          -9.60361772663884    6.43019942948452   11.73824194496558
C         -10.51336515284354    6.51522315397899   12.81277551346950
N         -11.24228182551839    6.57369155847945   13.69651614664901
C          -9.46051414312806    7.59270696338252   10.95312053610230
N          -9.34720655281576    8.54565328428299   10.32529185903672
C          -9.68376767046697    3.52033696327497   13.30535818394685
C          -9.37761899130140    2.18386151035018   13.54224337033513
S          -8.16692396043582    1.58616615582458   12.40303798813838
C          -9.84008347953350    1.32436924194968   14.55226393559967
C         -10.90246121584287    1.47044434772723   15.40098272465997
C         -10.91318426420373    0.67402600888955   16.65769341423211
O         -10.18998618445134   -0.25902287241337   16.92787880813422
C         -11.94321229702156    1.30016724471417   17.50755930098777
C         -12.26698147657879    1.03282580925674   18.80597311706208
C         -13.27128403365240    1.80076417455588   19.43732336727017
C         -13.91601086008507    2.84182089598925   18.70800126154747
C         -14.90601448963649    3.61212165720203   19.34816703564650
C         -15.22977535222908    3.34231099310902   20.64869407669092
C         -14.61034141149613    2.32106610548001   21.38145699114459
C         -13.64502489402656    1.56544806780571   20.77613349683578
F         -16.17680645699723    4.07640128540890   21.26223235945364
C         -13.56637917460029    3.08983606535706   17.35944829807926
C         -12.60160311369529    2.32277550911849   16.76633354646543
C         -12.06334184019293    2.32867417864398   15.40653905310996
C         -12.71650228919303    2.84438157982843   14.31484338681251
C         -12.31051063703918    2.62827778994552   12.98493919311979
N         -12.02692647901065    2.45078460522670   11.88614540041578
C         -13.92964114968857    3.55861838490502   14.39173922666841
N         -14.91937997359538    4.13976260918742   14.39711582963292
H         -10.63750634601497   13.51664157181311    1.68495950048635
H          -9.23317475125953   14.41619766466077   -0.32993875303331
H          -3.81361712409173   11.50416112871340   -1.17166020207154
H          -3.73494462905535    8.14044943254881    2.07606679392018
H           0.20436766777827    8.58461869944589   -1.11581739248667
H           0.29355958512670    3.94771733842624    3.00532800365145
H           2.35932277498200    3.84845647123719    1.40989817820407
H          -1.99686619538787    4.89347512436302    3.81720486488065
H          -3.45076111508324    7.58402980847603    3.91318579080959
H          -3.87744482237801    1.35038962788153    7.43008171009561
H          -2.42185166492227    1.93705055790119    5.42035472216257
H          -7.56934893350649    6.75239292740696    9.10263029284104
H         -10.34781842516805    4.08730367025952   13.93181193025732
H          -9.22890806658802    0.44803946758332   14.74800376910081
H         -11.76189398819876    0.24672304127729   19.34701302589078
H         -15.40626548684054    4.40424639260220   18.81336220387272
H         -14.90745647204726    2.15410062459103   22.40468129472310
H         -13.15265230035573    0.77338868985485   21.32015645830850
H         -14.06258707293089    3.89001962233077   16.83355002028006
