106
 SCF done       -240.064225984882          0.000635561600
C          -7.11570841434279    2.11044622035137   -2.91496279206010
C          -7.15767614022114    2.35650212377890   -4.25859578770050
F          -7.33284851177943    3.60325905131325   -4.70947536180008
C          -7.01721484146705    1.30317381490215   -5.18651222402523
F          -7.06229879016726    1.57457426406258   -6.49582126682936
C          -6.83694815864591    0.01840360721385   -4.75688102625006
C          -6.78876813407004   -0.26749338376645   -3.37815850027680
C          -6.93037237260941    0.79636230197906   -2.43893299208237
C          -6.88208631638591    0.53412419559503   -1.05184240527318
C          -6.69700195491024   -0.75221385191558   -0.61327075492431
C          -6.55572894359325   -1.80932434002771   -1.55946785550607
C          -6.60027928462331   -1.58441877522773   -2.90698717702485
C          -6.35775276879402   -3.07929242786203   -0.84985430304392
O          -6.24618880109546   -4.19191287864149   -1.31577682808914
C          -6.32361576534602   -2.72445879763205    0.59991685330329
C          -6.59064410360268   -1.29684126250350    0.73463856147270
C          -6.72245137809664   -0.60609797444836    1.90318966016065
C          -6.59842831535525   -1.17634205289517    3.19075998491290
N          -6.49178578560886   -1.57398135803310    4.26107760780534
C          -7.00287231296588    0.77709350069221    1.97733417258433
N          -7.23576904797080    1.89386996414393    2.09420092701249
C          -6.04070087382163   -3.63072684814550    1.54812833727329
C          -5.75680004192858   -5.02957421772438    1.23838207223707
C          -4.57557060350799   -5.46594146492332    0.63467047109612
C          -3.49891153647560   -4.54879355084309    0.21174264775848
O          -3.46627480876792   -3.35819151549797    0.31695715528010
S          -2.17340473405136   -5.51104183403163   -0.50420954309800
C          -2.99886377253929   -7.07538751737156   -0.19540907787493
O          -2.48590017888561   -8.13303863866514   -0.41921500213165
C          -4.32888331911274   -6.81445571886874    0.38276304599522
C          -5.25169492533630   -7.82099160538318    0.72208576664755
C          -6.43870722450169   -7.38097538660128    1.32767071616809
C          -6.67227032612587   -6.03019776734936    1.57143110563176
C          -7.98569913398794   -5.70698342051625    2.15060643290373
O          -8.41005784534471   -4.61858307057465    2.40485009458865
S          -8.88961633503403   -7.22978403726517    2.39655410617812
C          -7.58214680798354   -8.24726114658499    1.68901783337715
O          -7.70261582253704   -9.42626841936253    1.54316126024129
C          -4.98636140500856   -9.24104109936096    0.50974975360939
C          -5.00865404932819  -10.10819150798657    1.56510518795777
C          -4.70640645088863  -11.46584523258631    1.45809185380063
C          -4.26527875939808  -12.06303578564039    0.20164714195344
C          -4.22120418328169  -11.38257321715047   -0.97031076885555
S          -4.63619167253855   -9.73359448579427   -1.12547402800668
C          -3.91740757744668  -13.40376182238388    0.52949277828821
C          -4.11348632491436  -13.62851196025141    1.89869338099488
C          -3.80469116486430  -14.95764773070374    2.26742987853149
C          -3.38289946353680  -15.68338394805911    1.19907856842728
S          -3.34787638595841  -14.79937750420795   -0.28963165974783
C          -4.62899972925250  -12.42377523934616    2.48738084613601
C          -5.03443902845497  -12.16362235673882    3.81729871519762
C          -4.60154554583230  -12.83908492285075    4.91044042103962
C          -4.98714715285183  -12.57526784219312    6.25722737375336
C          -4.93854835423806  -13.61283642468244    7.22693352664647
C          -4.47391584762210  -14.97846547217667    6.93538296799903
O          -4.11358217876830  -15.45598938932910    5.89953453448621
S          -4.53026333203254  -15.96628727788879    8.44327451038187
C          -5.20605517441095  -14.63161294985463    9.40780902877236
O          -5.45921814451424  -14.73491287484560   10.57369276576144
C          -5.35878889246185  -13.44100176394613    8.54491476635540
C          -5.89832194150914  -12.23076750812984    8.99360540157114
C          -5.88117366029839  -11.18548750132345    8.06049182719407
C          -5.40916607624449  -11.31209098903277    6.76120352447034
C          -5.27353966341985  -10.00398540945694    6.08700544613645
O          -4.77791039776212   -9.72380941592824    5.03495750078867
S          -5.94631398028686   -8.70312815078667    7.14133477382244
C          -6.24431855065450   -9.82089989460027    8.48829918320071
O          -6.64461001777713   -9.49226551715482    9.56570099502682
C          -6.47569938572505  -12.01947783520566   10.31044525576445
C          -5.92061310411777  -12.12979201837615   11.52863205377152
C          -6.82177701495384  -12.12520563439356   12.72672115872091
O          -7.98781627923728  -11.82181143973352   12.73985526238736
C          -5.99147477508429  -12.62810256167007   13.83355882917470
C          -6.36219093099384  -12.90453660501953   15.11872697279190
C          -5.39879250696961  -13.41207345593262   16.01765271619679
C          -4.06729114541209  -13.63770038022438   15.55995803562802
C          -3.11093983760085  -14.15101723372037   16.46002248967082
C          -3.45895730650801  -14.42321379064206   17.75302620928437
C          -4.77588486471944  -14.19780937506948   18.20486336170381
C          -5.72642108785874  -13.70334691063281   17.35636943690454
F          -5.08728771929419  -14.47388850262730   19.47699614144989
F          -2.54989777562543  -14.90758491433770   18.60737924880193
C          -3.71313764393240  -13.34390667190162   14.22462539271480
C          -4.65929949373106  -12.83451944230153   13.37261749392424
C          -4.56574727487085  -12.41420224477335   11.97978219549223
C          -3.40449353408039  -12.20398157320652   11.29178151020147
C          -3.31314220154721  -11.62743170741325   10.00987386234553
N          -3.15790600710645  -11.13929768536256    8.98231945175315
C          -2.11818046580713  -12.48353615528801   11.80695398424760
N          -1.04919462685546  -12.69949624213417   12.16189504802414
H          -7.22481007283011    2.92764876223260   -2.21916110127410
H          -6.73073505417973   -0.77579265460330   -5.47914192428902
H          -6.98796266760500    1.36010377845499   -0.36719237678011
H          -6.48882151045220   -2.40233642823262   -3.60257216580226
H          -6.02541925942320   -3.37049871859673    2.59835804999980
H          -5.20423272350783   -9.70292937493849    2.54800196737121
H          -3.91782610839281  -11.84165904006692   -1.89821901177650
H          -3.89070015105185  -15.36635194304970    3.25757766534542
H          -3.08036927664682  -16.71213296237550    1.18531458606989
H          -5.75033125619479  -11.36344195668609    3.92354900952932
H          -3.93240680637921  -13.67131406546141    4.76184074845101
H          -7.53174081487626  -11.75767856789638   10.31205836064427
H          -7.37760953771051  -12.73657264815626   15.44387711003187
H          -2.09846665773499  -14.32675145694721   16.13156895436337
H          -6.72926141970090  -13.53684438899999   17.71729325736122
H          -2.70180816468583  -13.53728654175753   13.90521464925455
