111
 SCF done       -209.325716769515          0.000798196283
C          -1.02733820861372   -0.52964167935535   12.10218372607978
C          -0.52924217489577   -1.11400129063482   10.97874550428911
C          -0.70481397357711   -0.29084290651984    9.84865415112332
C          -1.34371704529661    0.91497164615040   10.16415899484431
S          -1.72344090211106    1.03449685900828   11.82504532190908
C          -1.47766119520886    1.68153601418121    8.97560586145243
C          -0.92326311672366    0.95958638671822    7.91122515819136
C          -0.41793373288965   -0.30865252517147    8.42813356194736
C           0.19885763989309   -1.29679725057300    7.71559625255903
C           0.42460855761746   -1.19088934890169    6.32805041217290
N           0.60778054879256   -1.11528171479516    5.19814765053876
C           0.65217971942361   -2.48692271358177    8.32063151789338
N           1.02640309294944   -3.45498550079387    8.80879252405656
C          -1.00091747713970    1.63740495806780    6.69289983822606
C          -1.60709455015951    2.87274169804451    6.82296528595541
S          -2.09626074458024    3.19468978137806    8.48570333234669
C          -1.86326293996336    3.85454178152557    5.82211134467504
C          -2.45095731898755    5.05399517246828    6.12986892833189
C          -2.72665174399614    6.07356196808805    5.22235069924552
C          -2.26679796567678    5.99243314652396    3.82963081914680
C          -1.68947509391559    4.89156725064875    3.30097614474374
S          -1.38851087397902    3.44287240174440    4.17715252021146
C          -2.55601958308302    7.26931594119597    3.27145444471301
C          -3.14516920295489    8.08602966587405    4.24078420809625
C          -3.46794060557878    9.36576441865633    3.73896509935642
C          -3.11991145408605    9.48916666042608    2.43151033872976
S          -2.39613922380073    8.06712391928782    1.75696121142123
C          -3.29009191586578    7.33732298092365    5.45769280181492
C          -3.87939455301703    7.79551280857027    6.66849862641774
C          -4.51423289611793    6.94987429537450    7.51931686689931
C          -4.94160787483232    7.13628063454061    8.86782423848739
S          -5.27764747330179    5.52379914711238    9.60829545851259
C          -4.31870158763332    5.64107528181117   11.07068115413040
C          -3.58674070688705    4.63313331715036   11.61280830335670
S          -2.82897862012649    5.11624796884754   13.08014618737545
C          -3.48555471274271    6.70203880764971   12.94569446524741
C          -4.25660213201460    6.83544807988700   11.83412255234559
S          -5.13538339571605    8.29108053796406   11.38532675640386
C          -5.01979007898999    8.28369195780754    9.60196221375142
C          -5.09598362979629    9.62298032854033    9.10389406920248
C          -5.67082634156857    9.97855259057241    7.92872258509316
C          -5.78146570210332   11.30284907256456    7.41537827589697
C          -5.23837596953716   12.42635739448822    7.99176713208276
C          -5.35398618617115   13.72036977897673    7.49089594770265
C          -6.11646883336429   14.00416205858117    6.26952231968075
C          -6.71931577087033   13.05575168749614    5.51960821727506
S          -6.68718395705509   11.38340969428391    5.90256991618766
C          -6.04369233849596   15.41338213716896    6.10674122061297
C          -5.28959071526204   15.97879877771833    7.14002025563666
C          -5.18610758312072   17.38171693942514    7.00145312547475
C          -5.84748571395213   17.83036513004921    5.90320884488226
S          -6.62083781408794   16.58216378519425    4.98684826819363
C          -4.84336405790835   14.92548539083406    8.01338517465977
C          -4.03180953548401   14.99496683739023    9.16920592787581
C          -3.58424486403525   16.09974206879522    9.81495683553737
C          -2.75578613464469   16.01176970432600   10.96992835153622
C          -2.10988454991954   14.91274317232364   11.46615633142920
C          -1.40866542555188   15.14205834689200   12.67063216288208
C          -0.64155240049841   14.22343171664058   13.41613907373457
C          -0.50826761941750   12.83215835095558   13.03631711766673
C           0.58856842085634   12.02788653237057   13.17145248345581
C           0.36583698149818   10.71133946696312   12.71561771563383
C          -0.89183193329411   10.48047403088227   12.24095974995953
S          -1.83539586354216   11.92441167162440   12.35572564638049
C          -1.45253383532789    9.23737191567464   11.65368437747757
Cl          1.58572370039343    9.49622660067002   12.75298867334912
C          -0.01464599163412   14.72652462098641   14.55492614941984
C          -0.11568691479795   16.07538998530720   14.96930916107353
C          -0.87264778386962   16.99334057185534   14.21762735869397
C          -1.51069493366341   16.49276841811542   13.08807397154032
S          -2.48436020000093   17.41989690726168   11.97921360970232
C          -0.98858103570829   18.39417735739900   14.57421288307050
C          -2.09531976247678   19.18852543073606   14.49520269109856
C          -1.83467315019991   20.52690370741882   14.86222599939795
C          -0.54040071464103   20.77728725010059   15.21070703481588
S           0.39209401929831   19.32243992968867   15.09622616672329
C           0.08051925154054   22.05625426425081   15.63890999569628
Cl         -3.06443291308470   21.73307977397547   14.86304080991422
C           0.56633927371751   16.29866551990009   16.20170330876554
C           1.15367096723079   15.18772240781439   16.68865510608550
S           0.92952114743624   13.79622668669078   15.68831878712670
H          -1.03368621213569   -0.91951143647325   13.10018498505382
H          -0.06252270749218   -2.08192829960237   10.96723736930575
H          -0.63673746169955    1.26335209488725    5.75289865411377
H          -2.68088444385735    5.22775932061706    7.17232950573278
H          -1.37386440973731    4.83595639112949    2.27104942298393
H          -3.93166432118873   10.15012980102090    4.30971288869718
H          -3.24411935552425   10.34429461811856    1.79613969904326
H          -3.79074066906974    8.85073490907038    6.88274854362435
H          -4.66521243152796    5.93641984519973    7.17068507991639
H          -3.47088030069846    3.63321807555517   11.24810438405857
H          -3.28583186981369    7.43449628026729   13.70086860307088
H          -4.76106206254723   10.38425484707832    9.79551051059794
H          -6.10301676643864    9.20214436462964    7.31106233929277
H          -4.68581553328908   12.28319337553975    8.90879790188801
H          -7.26637384438011   13.28449921438805    4.61862143747555
H          -4.65284900434195   18.03679561857723    7.66509373633811
H          -5.93540101047237   18.84219902752793    5.55848213412936
H          -3.75247894826981   14.03626742977384    9.58373805903253
H          -3.87527794568614   17.08834759661444    9.49696398247570
H          -2.10959877623096   13.96735443878257   10.96004904459332
H           1.53849825334461   12.36171877054051   13.54432345937344
H          -1.02494979126431    8.36520603276308   12.14468528965019
H          -1.21547828656959    9.17553630705797   10.58990029208295
H          -2.53372252968404    9.22206568628939   11.76379052998562
H          -3.07184062681675   18.83721868574930   14.21891606989197
H           0.86700635440143   22.35274816812207   14.94534163756673
H           0.52648673716648   21.95537691461832   16.62784234148608
H          -0.67564662688421   22.83675357719056   15.66941753534208
H           0.59794157595874   17.24889487273634   16.70092296456749
H           1.72243493731552   15.08336487737994   17.59165427516111
