82
 SCF done       -154.657832607024          0.000452220421
C          -4.92196747927242   14.98582660194643    8.39892128740989
C          -4.57347878696636   15.63358555333753    7.25555757776987
C          -4.10158647282679   14.73630405640054    6.27658767048365
C          -4.11953421981323   13.40481744326702    6.71982948882192
S          -4.69697454341458   13.26553021580367    8.32391383396050
C          -3.61501073142388   12.57562893750122    5.68574132333623
C          -3.26128979060419   13.38761980020261    4.59704599925298
C          -3.58484226174094   14.77169604500985    4.92782256057639
C          -3.44023276207544   15.85978061526971    4.11167059374173
C          -2.97399935470341   15.73656787280073    2.78875194422869
N          -2.61723516759889   15.63204670993015    1.70288403498541
C          -3.77513567330012   17.16489495378489    4.52279753810496
N          -4.03717300797497   18.23444645494155    4.84433371106919
C          -2.70489644648690   12.67208938044642    3.54036608085222
C          -2.64509683956792   11.31333626679390    3.79948572408933
S          -3.28994070069542   10.92252060520700    5.39457352757502
C          -2.13107048452968   10.28637736286704    2.96043049703131
C          -2.22803487435806    8.95274365193833    3.28164747160905
C          -1.71172174774766    7.90730586526238    2.52502633792872
C          -0.97645576410022    8.15483073511185    1.28457735324623
C          -0.77868985455396    9.38546393263837    0.76254980503044
S          -1.34351239522447   10.83673490714992    1.48665207277460
C          -0.59069997870747    6.86646925991698    0.81743648188985
C          -1.06214829732729    5.87832179854701    1.68487324589674
C          -0.69867331527254    4.58408879300736    1.25269994582655
C           0.01841794198168    4.62246347937499    0.09886624472030
S           0.28302219006884    6.21928431880647   -0.51232528104914
C          -1.77933760678965    6.51318952778459    2.76152056250846
C          -2.49564801823383    5.95876383546577    3.83137400948820
C          -2.77289820002470    4.65382298555789    4.13985861436595
C          -3.67503184800851    4.40765107794017    5.18892287411891
C          -4.21481066236451    3.22222618004290    5.59874514060539
C          -5.28746750795185    3.14861552393081    6.52746046003624
C          -5.95911381151331    4.26092502642281    6.99650784565351
C          -7.09582780050910    4.25560511578079    7.78589704814370
C          -7.59591962629015    3.01666944977520    8.38967568302987
C          -7.09091917631641    1.79693450552234    8.09886417027991
S          -5.80929730295293    1.53086816775037    6.98273686209124
C          -8.64242849026253    3.42761192967312    9.26195003151000
C          -8.80383389494474    4.81427070878127    9.18927253326853
C          -9.84804228278032    5.27300229691347   10.02239465962647
C         -10.43720194459372    4.24956175464364   10.69342527702186
S          -9.76058356112077    2.69391813724507   10.34166409459430
C          -7.87031198394783    5.35095055417718    8.23654119999242
C          -7.79869603681055    6.70065878618947    7.82088279062064
C          -7.26528884798698    7.11020704530136    6.63312859150056
C          -7.10068445676346    8.43938751803909    6.18818644693522
C          -7.39418897414005    9.64857707444032    6.80820677936844
C          -7.08889174541502   10.73960656487936    6.00289829136063
C          -6.54521425965487   10.38126666158117    4.75726113340416
S          -6.40799412122271    8.68437134738764    4.58430855228439
C          -6.32204237976141   11.56144691472789    4.00762452510354
C          -6.71077259367008   12.66824500439385    4.78189590236155
C          -7.20963607530039   12.19602192110274    6.05006041201541
C          -7.71194148456853   12.94036801818589    7.08136440178598
C          -7.80740257348108   14.34412210243629    7.01512601047621
N          -7.88191718067411   15.48827626690964    6.97322343416479
C          -8.16315589269098   12.35559456293036    8.28063646424180
N          -8.52757061673163   11.88680375932231    9.26262787723382
C          -6.52678085294936   13.88924353611590    4.10062401102160
C          -6.01536705408887   13.69422236881200    2.85599246539984
S          -5.75016896361037   12.02264157854285    2.46290992278769
H          -5.31461532621202   15.40732258614914    9.30220788830614
H          -4.65472365640340   16.69702951800702    7.12641461179646
H          -2.36190487357345   13.10242356731012    2.61662498182500
H          -2.74744332295457    8.72392277462826    4.20297893749982
H          -0.24826068982961    9.54862795663801   -0.16215645677393
H          -0.94287893267881    3.66851261002884    1.75886133154407
H           0.42198646748595    3.79448980464694   -0.45051749363689
H          -2.94907652718784    6.69488905993089    4.48530339306387
H          -2.37593606917588    3.83333329412394    3.56373607621655
H          -4.00959600475963    5.30840134097496    5.68608442411095
H          -3.86335165907374    2.29125591802456    5.17610658405177
H          -5.56247648431444    5.22363918250249    6.72268289663646
H          -7.47313111212555    0.88770397580179    8.53514609429052
H         -10.14734171426138    6.30024656853260   10.12452632800118
H         -11.24912040979116    4.30250489420594   11.39217227922618
H          -8.24028297674784    7.43424819574182    8.48219355644706
H          -6.96925778513454    6.36140646167438    5.91224967069198
H          -7.81848478612288    9.71195220767311    7.79312692000488
H          -6.76201366875138   14.85734128941520    4.50521139487942
H          -5.77155182257684   14.43167536831868    2.11723043247786
