96
 SCF done       -183.533969940380          0.000815946896
C           6.52441333104820    8.94473391271392    0.57950959449685
C           6.38814844739235    8.44347020304938   -0.67786891907806
C           5.13897624282193    7.81434542389617   -0.84918626963942
C           4.35423975333934    7.86264757557426    0.31220109139716
S           5.14382793105351    8.66999822590992    1.59444369300262
C           3.11937439709599    7.21424906657322    0.05237501308297
C           3.12636889761835    6.75593949915052   -1.27351948734451
C           4.40141576329314    7.12101546199028   -1.88284632630862
C           4.80282178313170    6.86143294934806   -3.16370219314290
C           3.98434275786437    6.17353677645290   -4.08128579310966
N           3.31671360716106    5.61635715924461   -4.82949320900425
C           6.06201432339767    7.26591500857408   -3.65049543679533
N           7.08651190250155    7.59298855208427   -4.04994250488523
C           1.94735357064282    6.10590425420993   -1.63214210543564
C           1.03508607099220    6.06461562119356   -0.59097783625298
S           1.66010444934137    6.84568575381314    0.86079082091283
C          -0.27091867502277    5.50043253244420   -0.58946189078777
C          -1.09381005980440    5.54705022878075    0.51306642573080
C          -2.38199776489113    5.03122332834572    0.56847069134561
C          -2.98990184004387    4.36961537603288   -0.58576444468089
C          -2.36500285412877    4.20133729729491   -1.77210393585530
S          -0.76920017567775    4.74504073991771   -2.09873223955829
C          -4.29335925342457    3.99311059018301   -0.15550198167034
C          -4.49660649463230    4.38595594493018    1.16941711706462
C          -5.78513437207673    4.03091449848748    1.62693363886735
C          -6.50403936810066    3.39628287657397    0.66391409877925
S          -5.65833100668976    3.20071943584366   -0.83246068846851
C          -3.30168410324291    5.04124497354840    1.64636107316352
C          -3.02608381756132    5.60187818282003    2.89963121114381
C          -3.83826398923628    5.67079605098421    4.00056162774301
C          -3.37933003766607    6.28237023052774    5.17601850379093
C          -4.04713924053798    6.46554751189627    6.40917763176205
C          -3.14350673570387    7.14491001180093    7.26133110704936
C          -1.96551527345460    7.32873497763954    6.47224042508932
N          -2.11090322526079    6.82413769934548    5.26025031756101
O          -0.86186140809427    7.92791315316107    6.89494191113084
C           0.19204836524251    8.00228598990662    5.95212591609687
C          -3.81124927889710    7.33231703892353    8.48669427682861
N          -5.07381861342867    6.79505244829073    8.41279617592626
C          -5.22433975330596    6.28210198207963    7.19603706796600
O          -6.32903458179190    5.68289079436559    6.78805084843533
C          -7.37790521540582    5.60852267632451    7.74275354248252
C          -3.37037726415958    7.95870610079736    9.67423175658569
C          -4.20734575599200    8.04413710498399   10.77117877795117
C          -3.87072445187870    8.64168917997979   11.97278218549191
C          -2.55311460938278    9.24632304329189   12.17567648849528
C          -1.58018692667406    9.27323105595650   11.23522006796957
S          -1.74110653801057    8.60538382163239    9.66319004983047
C          -2.57706819107733    9.75043949596748   13.50391204573585
C          -3.81553339311094    9.48834827897732   14.10081792632942
C          -3.86542602596393    9.98146760146351   15.42598515536599
C          -2.70326893775784   10.58425123810760   15.78609196918882
S          -1.49616402018088   10.58486829899961   14.54505193822255
C          -4.64415683745080    8.79152879024053   13.15339540811404
C          -5.96360067412333    8.32022283362885   13.27955852466212
C          -6.77558179073157    8.43254698163562   14.36866713522023
C          -8.09666028278018    7.93513298050646   14.41398877020290
C          -8.81793767652513    7.26435410058452   13.43157933430855
C         -10.09995949472477    6.93466022988836   13.85259935655110
C         -10.37849839088913    7.34869234209290   15.16475897318476
S          -9.04694646309040    8.14936579931009   15.88002989984324
C         -11.70494338969904    6.96114647614957   15.48310843913975
C         -12.26212910711230    6.30350296978572   14.37434439386343
C         -11.28168557423004    6.26219899357992   13.31521956279472
C         -11.41468794129102    5.71464278005284   12.06938347212722
C         -12.60404029875091    5.08378338389707   11.65184682585810
N         -13.56883623260183    4.56899990505846   11.30483663836627
C         -10.38004448836188    5.73916139514223   11.11373856414065
N          -9.54879866294894    5.75018181001198   10.32189919974483
C         -13.58752168155925    5.88454214377784   14.60985581695316
C         -14.00228223336440    6.22225322175580   15.85960970146124
S         -12.79785042519222    7.05980592208239   16.79156570334413
H           7.36225834523734    9.47074141192296    0.99128424691861
H           7.14440093839019    8.52337579055669   -1.43717790175931
H           1.74723031945627    5.68121077749131   -2.59948138774399
H          -0.69475287073460    6.03076312326761    1.39496191576936
H          -2.82897632813000    3.70888251828034   -2.61188638977068
H          -6.17440388237735    4.22655598712391    2.60863239582503
H          -7.50549463078881    3.01898622821146    0.73507620071560
H          -2.04772833665573    6.04423177379772    3.03247423074084
H          -4.83963621140995    5.27017861488243    4.00875919697992
H           1.01133326805518    8.51498431611062    6.45132724906717
H          -0.12713166960198    8.55759676632442    5.06761446390718
H           0.49699866623165    7.00034707630875    5.64270281658278
H          -8.20053199238587    5.09089094097439    7.25560675303714
H          -7.68713102999983    6.60773689981973    8.05205601607651
H          -7.05302309411058    5.05908499634727    8.62726170271769
H          -5.18096810348941    7.59841526311835   10.62433960325694
H          -0.61864539580012    9.72769443849866   11.41656458032636
H          -4.70431707337203    9.90448770183297   16.09262297637979
H          -2.46673527684070   11.04275869950902   16.72638852494341
H          -6.35810476668085    7.82053568052264   12.40627888578945
H          -6.42088666308638    8.92527568569390   15.26053855704728
H          -8.41869805540614    7.03330093809315   12.46170245818012
H         -14.20094102119635    5.36332066764807   13.89773319044961
H         -14.95503183156206    6.03403340990948   16.31216707447269
