96
 SCF done       -182.732261957028          0.000461014833
C          -0.69216953479000    9.50099840453847   -3.00503657739595
C           0.58143193166964    9.04194794237154   -3.14187053863480
C           0.93502717049051    8.18364315969854   -2.08197321120381
C          -0.10621632732402    8.01894658023504   -1.15887253500176
S          -1.49931572703318    8.90740460975316   -1.58871475669474
C           0.33304309205248    7.14007712339449   -0.13134158978205
C           1.65004285384742    6.75271001928451   -0.40962194205190
C           2.07238783102282    7.39891411492960   -1.64843384968267
C           3.28633084646106    7.27996805458606   -2.26246936656178
C           4.31801668629020    6.47541641748868   -1.73743643469168
N           5.16009745294191    5.82014321526204   -1.31630878606909
C           3.59034740003417    7.95423645738899   -3.46282240164334
N           3.84497230723706    8.49910223309686   -4.43948635644970
C           2.17500715427055    5.87836757138508    0.54193929166842
C           1.26591307190957    5.59151735176744    1.54429627332799
S          -0.26461724332414    6.42979688468306    1.30276495030031
C           1.44082433320667    4.72935783177500    2.66579041180217
C           0.43554908908893    4.47235696059357    3.56459012998504
C           0.53398067540560    3.60613423060822    4.65235681035309
C           1.74363957791436    2.79700334299549    4.86108582703722
C           2.86733450202600    2.91570027717825    4.12192080036740
S           3.04139510501416    4.00771963190162    2.80927189478746
C           1.42980975864717    1.92176866151287    5.93712494198177
C           0.12248117115001    2.15533646256880    6.36523439605565
C          -0.24739786644241    1.31194251722810    7.43564934411864
C           0.76501224045404    0.47506886301115    7.78260935313979
S           2.20169741054020    0.67603786596209    6.83544757301951
C          -0.44232069854077    3.23004346620593    5.59238831687713
C          -1.74560514644364    3.75180494549322    5.77964715892580
C          -2.15051383506160    5.00908364332423    5.45728622166471
C          -3.48900990854455    5.43868793681101    5.57173030890326
S          -3.88465669807842    7.16445716061882    5.29429797525482
C          -5.53074255245732    6.75063736923687    5.52986243265612
C          -5.65598624760642    5.37897088026010    5.79204288371327
N          -4.52708635678828    4.68465072480515    5.81987025145174
C          -7.09457656883845    4.99586717881142    5.93998299828973
C          -7.76999824461847    6.31513450065206    5.70475564091963
C          -6.81918608532069    7.32044162961630    5.49437411468910
S          -7.53713923745660    8.85569859379588    5.23879679803294
C          -9.13781148726655    8.14228385873997    5.36333994369679
C          -9.07401698983240    6.77953200552438    5.61885904743218
C         -10.26970789382651    8.97078231007175    5.16484453614617
C         -11.51910159916245    8.51651238615700    4.89792475844617
C         -12.65837028794725    9.33631223440679    4.65841459050965
C         -13.81189235711767    8.81594536287783    4.11694682276243
C         -14.96192885739726    9.54287423950154    3.81252556304802
C         -15.08128468049814   10.94898144386624    4.22515662518361
C         -14.07278301291820   11.66844702044753    4.76204607147119
S         -12.50378863412659   11.04269472512082    5.06029370914935
C         -16.41635365845116   11.32521141789968    3.91271581590636
C         -17.07725651213842   10.25127764307468    3.31893798192609
C         -18.40686004319842   10.57256228001701    2.96725469006234
C         -18.71493638221034   11.85311603879043    3.30032614838595
S         -17.41229096521825   12.72074810085291    4.04284965480189
C         -16.17035608895210    9.13667487363862    3.21252786513502
C         -16.50566691950876    7.93924300452304    2.53699889850749
C         -15.64362888116682    7.01343046370234    2.04155802021436
C         -16.02612189179551    5.85659313548268    1.32341349170481
C         -15.16535869734381    4.92665439848725    0.75792583048599
C         -15.84679655503172    3.91275784545030    0.08961889812208
C         -17.23922007902874    4.06141664928056    0.14101289953659
S         -17.71150676921532    5.45103639287408    1.02111720354889
C         -17.83137542035500    2.99050157657831   -0.58054960129692
C         -16.81227067958140    2.16959981941619   -1.08509350072658
C         -15.53428511721731    2.71169516428792   -0.68116736673543
C         -14.29074286928604    2.21358712839483   -0.95027330230434
C         -14.09743224960024    1.04377682517624   -1.71241080595002
N         -13.93175055889463    0.09362957522049   -2.33355407419477
C         -13.11573102378433    2.83137069364682   -0.47818224997807
N         -12.15605855620754    3.32407836037851   -0.08686589597118
C         -17.31577748166720    1.07819982198116   -1.82129057458906
C         -18.67482258686763    1.09010505324925   -1.86179344881649
S         -19.38519126469569    2.42557528637951   -1.00717226000645
H          -1.22602075371834   10.16420405470429   -3.65567308484989
H           1.22697016871781    9.30657949973525   -3.95925323833724
H           3.16519461065710    5.46044411761285    0.51478719995863
H          -0.51640180080569    4.95016691689847    3.37700748009783
H           3.75030146065323    2.32425957002237    4.30607941249077
H          -1.20570180492769    1.32049616371984    7.92213475577046
H           0.76767245942512   -0.26912885725725    8.55494905380813
H          -2.46983589925496    3.09889763631830    6.24846678620852
H          -1.44256237629202    5.75262963916643    5.12239311376913
H          -7.30784057731880    4.59572958120068    6.93308178561133
H          -7.38611610947572    4.24102442396167    5.20772228417399
H          -9.94884956296722    6.16915958023109    5.74879044407597
H         -10.08742760997498   10.03760237532347    5.17901776504399
H         -11.68537927085838    7.45241334949226    4.80128512823378
H         -13.81103445957408    7.75175393993113    3.92891452047570
H         -14.17979176696388   12.70792570746566    5.02917129863956
H         -19.10136387795591    9.89959869342416    2.49775073301763
H         -19.64662688265189   12.36424696643587    3.15534415692400
H         -17.56280054189523    7.79494916287086    2.34385730017685
H         -14.57672535039768    7.15536778973906    2.13003497958187
H         -14.09610691863872    5.00508733223224    0.83602816332827
H         -16.71053617868138    0.32730879962539   -2.29559364048910
H         -19.32668328790636    0.39125160679901   -2.34616113565804
