147
 SCF done       -281.478260292030          0.000621676591
C          -2.77606709776572  -14.58588819744296   -2.62874587400282
C          -3.68499128020531  -15.32273753392237   -3.33488573465968
F          -3.28536164729303  -16.39414166266876   -4.03110264561099
C          -5.04909816603545  -14.96639498915851   -3.34281873415530
F          -5.91309991064450  -15.69929106729037   -4.05446741130201
C          -5.48524568518138  -13.87929264261199   -2.63937880444260
C          -4.57435653621822  -13.10683609064716   -1.89421849847862
C          -3.19412654682978  -13.45998766529230   -1.89102738347259
C          -2.26192025654801  -12.69472276939966   -1.15458578084685
C          -2.69875736998794  -11.62989838239243   -0.41007607515081
C          -4.08345995661691  -11.31317264028131   -0.38545940360559
C          -5.00110675066342  -12.00575951934346   -1.12227206204367
C          -4.31738827904706  -10.22015674748821    0.57769925715368
O          -5.41446315492747   -9.84610585465536    0.94985272641955
C          -2.97750290063325   -9.77971235314855    1.02240122027867
C          -1.99109816224680  -10.67978915221450    0.44470787206650
C          -0.64301572754390  -10.68144805572726    0.67477608503092
C           0.24061898600831  -11.64170466717326    0.13725657815653
N           0.99982379376010  -12.40414653439345   -0.26191258986129
C           0.06196438385829   -9.75523553569193    1.47303318500548
N           0.72635412691280   -9.04184410629929    2.07902351656826
C          -2.73290461560977   -8.75683822196772    1.88697707214037
C          -3.78838058946160   -7.91105239972473    2.42081561915277
C          -3.94194594787589   -7.79160982194999    3.81366878234715
C          -3.00047356075578   -8.58459831576332    4.60683106537857
O          -2.40225579076358   -9.51294127465083    4.07179958191585
C          -2.81357880838773   -8.27070290327219    6.02681008636208
C          -2.63996652147948   -9.26551034956661    6.94898825216843
S          -2.49939732556281   -8.67218157289479    8.54522980260932
C          -2.64936198750802   -7.05838424266232    7.99022084308032
C          -2.80371861173321   -6.97286706085759    6.63708784491011
C          -2.90811325235436   -5.65399693422987    5.96215275883076
O          -3.43785274062941   -4.71142309311163    6.51186101969113
C          -2.33617673727840   -5.56812161008590    4.59845423561958
C          -2.96734611706882   -4.74702462878579    3.66562157188463
C          -2.50615267929478   -4.68931438994046    2.36517664696610
C          -1.38230682209192   -5.41398809906131    1.99967793325870
C          -0.71480841706047   -6.18858751298103    2.93678143442005
C          -1.19632287702426   -6.28079267403431    4.23038435123266
C          -5.03073360126066   -7.10196362635703    4.34237091121138
C          -6.00446312563198   -6.60981275065409    3.49928647672503
C          -5.85428058211211   -6.72528748770656    2.11992388097696
C          -4.71172014606120   -7.30507566431400    1.58606828219095
C          -6.98816798520611   -6.59504805904242    1.18771550384817
C          -7.09254911464341   -5.66788451139171    0.15135182907310
C          -6.07569623378002   -4.60263414491017   -0.00474675821723
O          -5.49958003823112   -4.07672399121844    0.92187406443040
C          -5.80902098851258   -4.23970198383688   -1.41831763990992
C          -5.61366171279360   -2.96008240167181   -1.84676970055819
S          -5.38025122078065   -2.86171230172926   -3.53992782369925
C          -5.52636780968405   -4.56972160083991   -3.69073540992936
C          -5.75777352613060   -5.18166460857919   -2.49715441408574
C          -5.78720474349760   -6.65504325649649   -2.28281299531060
O          -4.94182270803650   -7.18365207290465   -1.58819449313294
C          -6.87495140281298   -7.43497742737469   -2.91674747244400
C          -7.78639675596864   -6.88738416960665   -3.81771795597706
C          -8.80935505061961   -7.66591956279668   -4.32520201603332
C          -8.94184825399408   -8.98894725182424   -3.93372575681966
C          -8.04390125476244   -9.53908613171869   -3.03263066106680
C          -7.01377654733042   -8.76946662654955   -2.53131169490219
C          -8.14823471030520   -5.79077425703957   -0.75360133053045
C          -8.98779603558867   -6.88390208787594   -0.72831146498470
C          -8.81583348727397   -7.87199474234084    0.23739572966008
C          -7.86718918565058   -7.66647173782888    1.23123300792077
C          -9.47997750902725   -9.18055586999774    0.19554748777858
C         -10.83134171283269   -9.35539086696124   -0.11496700091898
C         -11.68184710495698   -8.17185335384963   -0.42985089006336
O         -11.82239423880372   -7.23212098175923    0.32286308298283
C         -12.32352370841153   -8.19575349366247   -1.75291001975473
C         -12.24977811462417   -9.18178485415321   -2.70139640600636
S         -13.15106177570932   -8.80634430975529   -4.10201277200523
C         -13.64406666424542   -7.29527385280259   -3.42581575116038
C         -13.12733546071996   -7.09503957216504   -2.19031363157915
C         -13.32133640628163   -5.87409330460054   -1.34281142735685
O         -14.33080322369413   -5.68477822034892   -0.71101708375579
C         -12.19396454532382   -4.90980350671923   -1.39811920776354
C         -12.03187483845125   -4.01340948234646   -0.34457689034975
C         -11.01516802190054   -3.07854172541865   -0.37689572244901
C         -10.16957793953977   -3.01144275361529   -1.47254330603200
C         -10.33159393571294   -3.89470368051832   -2.52896122771214
C         -11.32840605986877   -4.85204270358370   -2.48841315645080
C         -11.37379450494058  -10.63932252332046   -0.11528207890309
C         -10.58557696039816  -11.74081858711296    0.14117690444812
C          -9.22194827930434  -11.58708125527847    0.42118378252685
C          -8.68986958296799  -10.29893727184819    0.44259060007472
C          -8.38319103376325  -12.75309234909222    0.57606958946971
C          -7.20816606806032  -12.93307744156018    1.22440718479283
C          -6.37681373554526  -14.11559190087699    0.83571530388439
O          -6.72111114697503  -15.02986927892655    0.12315334315802
C          -5.04674235578166  -13.87233718405210    1.41689489715266
C          -3.89591592008373  -14.58694227958743    1.24226920312345
C          -2.70805856808455  -14.13592709547411    1.85783514283971
C          -2.73891225371273  -12.94709299134344    2.64349708895583
C          -1.54827541962794  -12.48643116476813    3.24197751381832
C          -0.38486472606593  -13.18577316624327    3.08088475518492
C          -0.35616890096669  -14.36907598498398    2.31273583451809
C          -1.49220596938597  -14.83094228082821    1.70831592347139
F           0.79207796915535  -15.03887289100727    2.18279355146895
F           0.74455751476413  -12.75363424251026    3.65143308915614
C          -3.94757716221500  -12.23450081835448    2.81616009200087
C          -5.08952718369914  -12.69091651634320    2.21080721632219
C          -6.45115087907606  -12.16415395164976    2.20103207009369
C          -6.94848162037687  -11.26177161212907    3.09927379818287
C          -8.31782083595396  -10.94162491713911    3.21206204934983
N          -9.42372047181003  -10.68522595226051    3.37722811336746
C          -6.16677679919586  -10.60705959778413    4.07278216418487
N          -5.58754118158785  -10.04185480040669    4.88703230076982
H          -1.73546305475466  -14.87075893098784   -2.63715147346675
H          -6.53336157249846  -13.62602920377018   -2.64753471591281
H          -1.22294524364554  -12.97820872307510   -1.19285624800600
H          -6.04519048436545  -11.72928207562472   -1.10554544864574
H          -1.71326087628715   -8.49055447254130    2.13034299607216
H          -2.63315250719845  -10.32061497066709    6.75889394254954
H          -2.59637853921166   -6.23842239227950    8.67910149042473
H          -3.83871738301160   -4.18587296089732    3.96615778783354
H          -3.03186582880292   -4.08532225857883    1.64193393678212
H          -1.01760171772741   -5.36978268747277    0.98374114199486
H           0.17510431347402   -6.73357651384090    2.65856422963279
H          -0.66997156681519   -6.88275209550902    4.95702658453715
H          -5.16168448356007   -7.03880636546870    5.41110006942705
H          -6.90184731328062   -6.16687481680862    3.90287093778072
H          -4.59109466341265   -7.36503737973252    0.51528790333031
H          -5.62206124983942   -2.07130559584588   -1.24743222716629
H          -5.38880587177523   -5.02850949884144   -4.65038758958729
H          -7.69754288149318   -5.85548862471019   -4.12007971489235
H          -9.51034741690063   -7.24118786585801   -5.02852120223330
H          -9.74335639527473   -9.58969334430262   -4.33691612829449
H          -8.15224079337619  -10.56831237345343   -2.72306194519869
H          -6.30599952287021   -9.17275815897623   -1.82244952152477
H          -8.29440058851016   -5.03257819366477   -1.50732193605226
H          -9.73532408561621   -6.99391606116985   -1.49959937993076
H          -7.76191399697759   -8.38735505030741    2.02730667660031
H         -11.71571850037378  -10.10940408222823   -2.64557173995437
H         -14.27965241615090   -6.64403396014376   -3.99186684915090
H         -12.70908113686852   -4.07667965445555    0.49282491399504
H         -10.88546211695279   -2.39305324771988    0.44682201424746
H          -9.38379196182374   -2.27032040747137   -1.50511605720197
H          -9.68118925913043   -3.83309180038643   -3.39073713670881
H         -11.45147587658222   -5.53427817517106   -3.31803443968866
H         -12.42961829665790  -10.76693194199072   -0.30349522623712
H         -11.02151502497777  -12.72865684740113    0.14187870069803
H          -7.63103366568662  -10.16011829475446    0.60301541255098
H          -8.70163057951253  -13.62296701697781    0.00456817418462
H          -3.89287501015799  -15.48304609701136    0.64041577099456
H          -1.55734556979501  -11.57220264822597    3.81616838877190
H          -1.45364225002541  -15.73438662642330    1.12032408149116
H          -3.92732952129449  -11.33311426657432    3.40735786892059
