89
 SCF done       -174.543404738975          0.000629964408
C          -5.42405783161932   18.50405314755639   -0.95571218601042
C          -4.10946503204984   18.29485232360016   -0.67148766834755
C          -3.69489510600298   17.01100277116809   -1.07664608409007
C          -4.73140047545515   16.27681766663299   -1.66654322231908
S          -6.19539114054966   17.15302028139504   -1.72147332971301
C          -4.22745616193601   15.00179755715716   -2.04621562160294
C          -2.87152713216135   14.93553425290976   -1.69110594092169
C          -2.49223260663065   16.20116488078191   -1.07091672584486
C          -1.26125994283069   16.54749896641753   -0.59495844138917
C          -0.15427819764948   15.67482118783184   -0.64762192559689
N           0.75605112812910   14.97851314540298   -0.68480704811219
C          -1.00786030910543   17.80926621964651   -0.01722555096968
N          -0.79512914565930   18.83416739051891    0.45167925934874
C          -2.27986594116630   13.71924528920152   -2.02586331214317
C          -3.18202581639968   12.86378375002492   -2.63738030815919
S          -4.77754883314476   13.56963575271861   -2.79488555439218
C          -2.90213250060069   11.56360400474459   -3.11585479524905
S          -4.14257633655455   10.58687701156726   -3.95061021019093
C          -2.95128147181690    9.36789134859351   -4.13255907452817
C          -1.74056044842847    9.77791498694770   -3.55926982348109
N          -1.73738511582870   10.98527779904287   -3.00871649270578
C          -0.69184456531895    8.72472119032391   -3.71924379901320
C          -1.45495395334267    7.67072916789348   -4.46559504508045
C          -2.77378656534328    8.08313112429529   -4.68726982642678
S          -3.68272433467568    6.92082558852877   -5.55965695236057
C          -2.28349183417442    5.86447508575416   -5.63923235993464
C          -1.18320893374986    6.42037516972220   -5.00052608253353
C          -2.38820148986971    4.64210214970084   -6.35063647021458
C          -1.36821756553305    3.76376531131143   -6.49948582213210
C          -1.42757988421285    2.53485744182845   -7.22602835099589
S          -3.06681220571704    1.87737645989858   -7.40046224367836
C          -2.91553502932087    0.87748065999846   -8.83832393141210
C          -3.92400322019649    0.67485304546731   -9.72707710172409
S          -3.47055325214953   -0.42091520065908  -10.97273369236799
C          -1.89492058455117   -0.58940699344700  -10.30264398389823
C          -1.74447226932514    0.14741593786594   -9.17037818820530
S          -0.27978492704803    0.18564655873244   -8.20238346554113
C          -0.29584621910416    1.88533642180220   -7.64045147555838
C           1.01494537154860    2.44602634792356   -7.63480385894292
C           1.32567063347264    3.76446498888932   -7.72309343988402
C           2.64969251523822    4.25033687462527   -7.63759921972108
S           2.92647562823644    6.02023004650230   -7.69563236329780
C           4.59366865736663    5.69413660930165   -7.47955877171462
C           4.81296861508871    4.31207214222723   -7.38928650523202
N           3.73497544385001    3.54459686953289   -7.47322930401194
C           6.26729211282343    4.01720338900972   -7.20105303276017
C           6.84357027158687    5.40277314562140   -7.18618374413792
C           5.83218537069089    6.35548346564712   -7.35102875696585
S           6.43554490380963    7.95955930521115   -7.32482580930551
C           8.06794776398013    7.35686815806226   -7.09210949060578
C           8.10164780482342    5.97017678448518   -7.04374703231772
C           9.12398952823828    8.29405224595134   -6.97192467668315
C          10.43470237662140    7.98275521196805   -6.82621366439455
C          11.47721012761607    8.93265290655102   -6.68716955372000
C          12.82837129078411    8.65723224240506   -6.55889195136598
C          13.59388948297858    9.81594358805878   -6.42890834951332
C          12.82251179354217   10.98518002863310   -6.45588870108398
S          11.15670242174631   10.66250201528801   -6.64640113088007
C          13.69218085993792   12.10220040226208   -6.30660688458298
C          15.00658849847216   11.63395509243167   -6.18749550785204
C          14.99536175867661   10.18631193855306   -6.26288073378288
C          16.06501199298717    9.34105739342596   -6.19748154522720
C          17.38563063990444    9.80941488125979   -6.03775146638742
N          18.46188370256597   10.18319404913571   -5.90583963775924
C          15.92282205869035    7.94121910234390   -6.28845609106429
N          15.81220412652938    6.80207900744598   -6.36390650762592
C          15.93755785643292   12.67927693211051   -6.02981329811564
C          15.32409472164045   13.89411945497717   -6.03195673755320
S          13.60267024272191   13.80475618553140   -6.22583365899491
H          -6.00675551796471   19.38229372895710   -0.76242934030766
H          -3.47769766531234   19.02387871809297   -0.19801951467828
H          -1.25737521091483   13.43925209068676   -1.85403053089060
H          -0.32593369776423    8.36919426353113   -2.75441006886444
H           0.16671053232148    9.09235032013313   -4.28401143905218
H          -0.22786726613012    5.93180908774046   -4.94438740448283
H          -3.33882069345374    4.44584074901851   -6.82786057660379
H          -0.42069640723624    3.97226877777820   -6.02428801408800
H          -4.90956925367291    1.09284134612287   -9.70536435229014
H          -1.17569337151410   -1.23460730710280  -10.76386548232682
H           1.83346979438045    1.73881957399446   -7.60823428777347
H           0.56026075448714    4.51006200204353   -7.88228500564356
H           6.66486321309376    3.41077948870917   -8.01675713010360
H           6.45314885478010    3.48145551607642   -6.26843277447213
H           9.00868448060182    5.41166706471652   -6.90385118994049
H           8.83628147561671    9.33768502458713   -7.00067838334968
H          10.74958773421940    6.94895418229019   -6.80939464949011
H          13.21954873247029    7.65609628374170   -6.56148730634672
H          16.99824937584770   12.54600270048836   -5.91994232001133
H          15.77663081471185   14.85997673012210   -5.92976595620634
