97
 SCF done       -207.330041052393          0.000470539259
C           6.75513635345304    0.32067311858840    5.80987502795452
C           6.01467514187859    1.10590851679203    6.64203395278299
C           4.97017223103709    1.75038334660401    5.95304063085552
C           4.96095847309320    1.43276645709107    4.58895982450357
S           6.20250849875211    0.34361056034903    4.17308742541825
C           3.88007165212181    2.12870437408805    3.97370974729761
C           3.19668558738815    2.85554769550477    4.95820511929077
C           3.85704365415227    2.62933207048123    6.23818642521060
C           3.47690698737156    3.10812691608209    7.46240099908401
C           2.30087789203194    3.85785815242032    7.64473140741881
N           1.31631700873607    4.42761273932390    7.80218251016703
C           4.20815825390568    2.80852769439506    8.62683785047708
N           4.80398592133988    2.54700273998323    9.57303176963913
C           2.11888646361968    3.58297827055296    4.44996771613970
C           1.99179029615843    3.43284670634159    3.08072560867921
S           3.21487182666877    2.35401944373207    2.42402011485424
C           1.05281823815687    4.06662388761249    2.20852445671569
C          -0.13428894170817    4.59815532514963    2.64928722288941
C          -1.05063047716396    5.26698184781731    1.83847764878485
C          -0.78407233567250    5.49726390221388    0.41737700848652
C           0.30318931731605    5.02939556117790   -0.23484419085787
S           1.54989777307637    4.13268922773800    0.52528283729736
C          -1.89789418513636    6.24267670475634   -0.05720656652048
C          -2.81412138695232    6.44949640921227    0.97729055700707
C          -3.93608780997386    7.18625610245297    0.53430960959154
C          -3.84176930213459    7.50692996154440   -0.78293341773269
S          -2.40035280266161    6.93356590509974   -1.54624530784093
C          -2.30424872464848    5.82301736614884    2.17321057206169
C          -2.91913569735308    5.67085408187817    3.43334110063086
C          -4.14597738929119    6.12640537323725    3.80419214792687
C          -4.75143946175664    5.80973322506509    5.04721182695979
C          -4.22970660644357    5.10066189245641    6.10235842041651
C          -5.15743420552248    4.83419841359303    7.12732423614975
C          -5.01578817092437    4.08885268679227    8.31980992050330
C          -6.15349918487670    4.01412207940343    9.14771539872186
C          -7.32260508994002    4.71451454865808    8.75499452807342
N          -7.46439610776480    5.40965565307362    7.64690021032909
C          -6.41742861818863    5.44401332475414    6.85568660232716
S          -6.42921241031695    6.26027361383029    5.33072696563580
S          -8.64248117157531    4.53781490306656    9.87961269286847
C          -7.65784603594429    3.47578318812209   10.83928236258893
C          -6.40675754411870    3.28662261393946   10.34984854815998
F          -5.53285746571246    2.44855447729047   10.92956077154627
F          -8.15764093944766    2.92279092390885   11.93809433257868
C          -3.74937185916799    3.46495123009539    8.62398364207303
C          -2.89377244513953    2.87674898741120    7.71087605057718
C          -1.70013554557780    2.46169602965763    8.29840879778516
C          -1.66067423666472    2.71121336430987    9.68339430674387
S          -3.06803005827893    3.49411062871349   10.23836449815169
C          -0.44092315085045    2.21027362700483   10.19534064693262
C           0.30158811005779    1.66504712514472    9.12159911434726
C          -0.46186853761053    1.82322092221557    7.89876127292949
C          -0.06414552730531    1.49598605665412    6.63159656624347
C           1.14581728948634    0.82144847257261    6.38585411073336
N           2.13750048341975    0.27887538634390    6.18660853759126
C          -0.79785396345893    1.89063940879462    5.49751793657823
N          -1.35920832957697    2.27965330965967    4.57485947118483
C           1.54016893330616    1.18110691728809    9.50790987151221
C           1.75744443414938    1.30631640927069   10.87722072512894
S           0.38408814052569    2.08857986772309   11.67272978233095
C           2.87274952450373    1.00880905082050   11.67326458286170
C           4.06836239405605    0.40776572956523   11.38199487373438
C           5.19824700884035    0.68271826688898   12.30457758078030
O           5.14224558965618    1.14489930120645   13.41884143197340
C           6.41373589039117    0.29882526229608   11.54727163856082
C           6.03756852194242   -0.28129556934107   10.32260099888354
C           7.01374855897670   -0.70576343173480    9.43841156126621
C           8.36118847694446   -0.55273965128493    9.77009735596563
C           8.72033905244107    0.02789113600383   10.99956687966858
C           7.73434512150346    0.45925303269839   11.89641658480423
C          10.06518238861516    0.21938695125016   11.39318055750497
N          11.14196058476683    0.37618001456647   11.75895677055585
C           9.34363420920578   -0.99933118980975    8.72387447641456
O           9.01599992582080   -1.07354434828584    7.56940535255122
O          10.57734623091171   -1.33017840990325    9.09784379228473
C           4.57458433307821   -0.34185423309204   10.25936265714476
C           3.86312262511294   -1.15460207722615    9.41234995719937
C           2.50078745994257   -1.45211018566659    9.61429702454829
N           1.40191414930491   -1.73485084877054    9.78835555111269
C           4.42023810256445   -1.82237803330349    8.30292013305577
N           4.82509578230668   -2.34889493930547    7.36723825430176
H           7.60627033640693   -0.28077221207530    6.06339519781104
H           6.22209026193121    1.22326619820662    7.68990015704891
H           1.48197969279751    4.22097173805133    5.03534116517468
H          -0.37043119819530    4.46174128810174    3.69378624758181
H           0.46299193461047    5.18590577507700   -1.28983266279931
H          -4.77523423585197    7.47790709148837    1.13789340480602
H          -4.54628204490554    8.05894754730901   -1.37377437913168
H          -2.36109698805838    5.08110990453519    4.14643852159946
H          -4.74026252892802    6.71233747723516    3.12209783314168
H          -3.20077894951950    4.79932461641794    6.13773815121921
H          -3.15966891822784    2.70522212433034    6.68392662329956
H           2.27434475880757    0.79663127133774    8.82554638320779
H           2.83261135542161    1.41295383761594   12.68169100952855
H           6.77557084135236   -1.15080611523821    8.48515067280018
H           8.00660415551945    0.90988061610462   12.83881214351661
H          10.78130235372560   -1.19415673075737   10.03551956067107
