107
 SCF done       -210.805352378266          0.000509672160
C           3.52813046241271   13.74798201261853    5.74347506085699
C           2.71834880367474   12.93769402671494    6.47778853653776
C           1.96337257351883   12.08139917530744    5.65211933444023
C           2.23368682901531   12.27741757417298    4.28999814732683
S           3.39954263419100   13.49687693613616    4.03200901983940
C           1.43060431394663   11.38065246904897    3.53206558237070
C           0.65851136577176   10.62311559699560    4.42300322572297
C           0.97047328644716   11.03708743298917    5.78683122269730
C           0.43000844518565   10.53065245208813    6.93471014967349
C          -0.53003586008013    9.49876794045731    6.91885857032768
N          -1.30884216781713    8.65576291406207    6.90929851591015
C           0.79759593642820   11.00208613274931    8.21195739050948
N           1.09270695670449   11.38114629781498    9.25328045320191
C          -0.17659522319984    9.70978897034558    3.78627339389754
C          -0.05352623182282    9.76365323704171    2.40683836264798
S           1.12735274175206   10.96363331661757    1.90258688239467
C          -0.76309836452116    8.98422523583743    1.44586103942526
C          -1.77833698753815    8.13052498910088    1.80663271279232
C          -2.52021214384272    7.35181322171806    0.92214822223249
C          -2.35325760295682    7.48897374738014   -0.53052340124472
C          -1.40030303502309    8.25252603244462   -1.10771988233220
S          -0.25949393682949    9.18519614069939   -0.22630962288485
C          -3.38438607223224    6.69365650382927   -1.10359373521367
C          -4.14123991576299    6.10322187573152   -0.08954625159245
C          -5.18299078942355    5.29902980647359   -0.60085369997961
C          -5.19251324608232    5.30235555298689   -1.95956006208718
S          -3.94458762272115    6.26936501752288   -2.67126342950742
C          -3.59171592102324    6.47688063567626    1.18645836577465
C          -4.07532252666327    6.02971736245568    2.44040692449392
C          -3.33272810414768    5.95867770203957    3.57855444672169
C          -3.82607979890755    5.61785970540229    4.85940077538594
C          -5.14006350277072    5.46191480648732    5.28525412095556
C          -5.21806054637564    5.17561101389795    6.64256556205513
C          -3.95646601320035    5.10071909914181    7.26641594169313
S          -2.67954593665215    5.40001185762478    6.17386867279695
C          -4.14890542252083    4.81102530109241    8.63498556066990
C          -5.53389502136597    4.71937557926906    8.88799073060451
C          -6.24850970068607    4.94287535897116    7.64537592506265
C          -7.59982343977105    4.93976385058771    7.45562201355854
C          -8.50319777543234    4.72736522757275    8.51810879120883
N          -9.23827862350343    4.56361057424545    9.38262597770244
C          -8.17630459670191    5.15338578051922    6.18665466255152
N          -8.64148280685078    5.32284667457695    5.15211041948808
C          -5.82420443800390    4.43606965932927   10.21918007520309
C          -4.67882107402414    4.29619244257658   10.98309837684617
S          -3.21227617191933    4.53169994319043   10.03331430991445
C          -4.59703836464120    3.99607324814126   12.36141165842305
C          -3.46804118525115    3.69365217456589   13.10277885667489
C          -3.73153736700076    3.44394414891600   14.44804955553959
C          -2.71851855514266    2.99003674826227   15.41005691760127
C          -1.57330320194003    3.71043158182777   15.75564401047768
C          -0.60548418669637    3.11231433292730   16.56865190250018
C          -0.78357791248847    1.83589363600129   17.04734758144758
C          -1.93200001441878    1.11952898448851   16.74571020935140
C          -2.89714649838893    1.68760775545291   15.93077904206394
O          -4.03679629040337    1.06430641993837   15.53599332550201
C          -4.25621328238603   -0.27472938417649   15.91144851535715
O          -1.27842571644012    4.98710735271891   15.38868228585785
C          -2.28716348804628    5.89523820117659   15.01365233923534
C          -5.09350633264266    3.54045558099856   14.76200286764433
S          -6.02446084156585    3.96509208879726   13.34613170376356
C          -5.62443323257694    3.48277520656695   16.05655412192169
C          -6.92913584554130    3.52418585121528   16.47024157350985
C          -7.24119331398784    3.99030107185603   17.84051979621855
O          -6.47127029443873    4.12597759488460   18.76364948333074
C          -8.69159358906420    4.31316765701884   17.81704697916064
C          -9.22295636666380    3.95514894649519   16.56484497712485
C         -10.54789548509134    4.22427476072438   16.26894735657913
C         -11.34899015904802    4.82374164350642   17.23898269605908
C         -10.81507362014677    5.15820174197011   18.49438899459123
C          -9.47066666865775    4.90338643090707   18.78735304226879
C         -11.61441380534677    5.73790301535128   19.51221896779514
N         -12.17570317924832    6.17263998078534   20.41090216869911
C         -12.77915398260407    5.18104927292348   16.95617597939177
O         -13.31638756114018    6.11862524718926   17.47363832796603
O         -13.42834197239063    4.39785731965118   16.08689358140458
C          -8.17411938101976    3.30058973608464   15.78104430908195
C          -8.41526926778413    2.39237956420256   14.78060450775477
C          -7.44021908796468    1.51950756413618   14.25699254461749
N          -6.70862246901307    0.73425881956480   13.84997122724055
C          -9.71206893269138    2.12459799728717   14.30119947058854
N         -10.76782287006570    1.88642843563289   13.91722396722589
H           4.20888587084425   14.49486947373203    6.09961059213123
H           2.66793355102984   12.95707686558976    7.55112004646590
H          -0.83508765534909    9.03770684314081    4.30332460886311
H          -2.04888719504170    8.10131169401175    2.85025295437563
H          -1.28123117224243    8.32787503193920   -2.17694354574647
H          -5.88825310213436    4.75049005228212   -0.00360900089718
H          -5.86823870098507    4.78575670081828   -2.61274998178456
H          -5.10237567072573    5.69037496317911    2.46005051751492
H          -2.26806996558441    6.13762111001422    3.52600913740670
H          -5.98571598335566    5.57029379286656    4.63182367544907
H          -6.81085854383130    4.32234107384999   10.63137296548398
H          -2.48657474292752    3.63084036324429   12.66485266372546
H           0.27315590602677    3.68753320094206   16.80989322875886
H          -0.02984233642497    1.38826069794510   17.67651396145345
H          -2.06051230754378    0.12605166297437   17.14199634364879
H          -4.37698425185791   -0.37282627360601   16.99491858244108
H          -3.44479443373146   -0.92490717432050   15.57155999831318
H          -5.18177302941485   -0.55683492832617   15.41187156308055
H          -1.88887005969747    6.88527105431555   15.23950819661197
H          -3.20600355342159    5.73878702508963   15.58382513013754
H          -2.50921907848362    5.83903374501971   13.94378489869963
H          -4.89081808878098    3.52624483891426   16.85714421426515
H         -10.94024282802264    4.01872029066383   15.28397175192265
H          -9.05537107308247    5.16565608212081   19.74851208408432
H         -12.90524096383098    3.65815389288358   15.74652317544069
