86
 SCF done       -158.051971841160          0.004119173396
C           2.69599652775573    8.08080530149491    9.47366022441904
C           3.30075432654036    8.93093220127683    8.59894033972695
C           2.68804072777057    8.88492995613348    7.33095729787458
C           1.61584240844128    7.98480330601131    7.28869214185468
S           1.36601444993466    7.20379670062257    8.78641582990208
C           1.05463531515174    8.00896816827441    5.98009635784216
C           1.77972158702848    8.91971152081789    5.20195046498560
C           2.82576750678082    9.51115472634579    6.03019381977829
C           3.71801036921036   10.47575742284894    5.66014346714092
C           3.73373715611714   11.03002815824209    4.36235924427777
N           3.74228350045282   11.49226078523231    3.31228916769011
C           4.68296975310805   10.99593160922345    6.54797337808782
N           5.47344293118852   11.44362052761108    7.24751876896671
C           1.30200481649269    9.02399840440796    3.89397339017766
C           0.20219403734458    8.21605226020049    3.67737888008566
S          -0.22846706890669    7.28854130614320    5.11151341011466
C          -0.57692320795633    8.10449306547312    2.48471857698875
C          -1.82919393327669    7.54765050900811    2.46908360330728
C          -2.66085310117155    7.47493570375042    1.34849369834781
C          -2.23880866132591    8.06132471332162    0.06494478440135
C          -1.03193184963256    8.62678359222678   -0.15132837304903
S           0.18847450677260    8.76952109400819    1.04519274962933
C          -3.35983321651846    7.92683127715297   -0.79815769614163
C          -4.41084637903363    7.32394592509340   -0.10542517094752
C          -5.56481624091304    7.18009465567963   -0.90762772718940
C          -5.36583123708738    7.66990777944767   -2.15903760033147
S          -3.78074172793256    8.32067490652364   -2.41794535565803
C          -3.98144747521992    7.01678609413648    1.23260525245466
C          -4.82635175590936    6.41872388413205    2.21183314720601
C          -4.44271208559557    5.73013356604474    3.30516489886710
C          -5.37799990577861    5.24692215700629    4.29283167064346
N          -6.67477329933686    5.56155017409600    4.17304979665206
C          -7.47869649195350    5.15290663314897    5.13463250539827
C          -7.03425490631155    4.43041843523165    6.23200638174079
C          -5.67002526698136    4.11801429935815    6.26067090211081
N          -4.85937193262594    4.53361515346501    5.28778486173066
C          -5.07404228182382    3.34135063206835    7.32951736305311
C          -3.80665639559373    2.90569975018726    7.22363303870513
C          -3.09010574066942    2.12884492526940    8.17665396533719
C          -1.83952089337638    1.57034493941244    8.01123087061268
C          -1.43150169896083    0.79356511878214    9.14536190234486
C          -0.22545163135567    0.12773991186474    9.36099605141322
C          -0.03533813589406   -0.55872387846927   10.55169867705516
C          -1.03362195634247   -0.58688889641693   11.54156119807457
C          -2.21893645513905    0.08665470744143   11.35057639540162
C          -2.41116930924898    0.77716051888520   10.16029724556593
S          -3.80635354172391    1.71018970910740    9.72319738745141
C           1.18285717706138   -1.24171732365727   10.77913144303287
N           2.16476172346236   -1.80624979706427   10.95828040505216
C          -1.03179993089840    1.66772753235525    6.80391771465065
C          -0.54744649801367    0.55037370086875    6.19590859431867
C           0.19493696658920    0.54217021455669    5.00267315099552
C           0.49480263597151    1.80131124057554    4.30259513368005
C           0.13745898265836    3.02484317723656    4.74672169304695
S          -0.72940625111132    3.29585178548245    6.20383403858891
C           1.19798825002080    1.41021620729394    3.13335254095836
C           1.33998110112212    0.02001082946486    3.10355627237301
C           2.03133121575404   -0.40238103331895    1.94443224081424
C           2.38353253936376    0.64466748409900    1.15349573553466
S           1.89910123828852    2.18736854868104    1.76916550550865
C           0.71217001593899   -0.53188349121539    4.27969063492031
C           0.61679705420788   -1.90825942560107    4.67820124474861
C           1.12693062897235   -2.96427463077672    4.04159997687988
H           2.94606809289303    7.90638734902652   10.50134905400760
H           4.13893009774046    9.55369849147748    8.85356043680177
H           1.71233178366430    9.66839076743263    3.13682094877159
H          -2.21309747242234    7.19053498583626    3.41474996172348
H          -0.74842185256344    9.04307065067184   -1.10536316637705
H          -6.48958290452359    6.74074114038529   -0.58083877385026
H          -6.06262646159868    7.69517282064565   -2.97437984161540
H          -5.89133325904944    6.52304992139299    2.04483638943551
H          -3.41167026475158    5.48167418726163    3.50446110999235
H          -8.52214572350682    5.42185846081380    5.02067548100871
H          -7.70312536197343    4.11447233318663    7.01595213952558
H          -5.68725404135523    3.11944084567998    8.19203995335313
H          -3.28420084445633    3.15761482386441    6.31123122387775
H           0.55576560874186    0.15233416978205    8.61550690994840
H          -0.85491580256800   -1.13550174495934   12.45391964226028
H          -2.98806532564239    0.08360079616675   12.10703733762136
H          -0.80622635187052   -0.40044880349988    6.64331539957888
H           0.37676815616963    3.93223113071481    4.21417835133586
H           2.26268216773981   -1.41939175716863    1.68746370085841
H           2.91140250116442    0.61210119592365    0.22009394235086
H           0.07296896663573   -2.07809845113721    5.60004124633709
H           1.68670067014125   -2.87758611597445    3.12802373274610
H           1.00305863591013   -3.96069562818639    4.42977731146862
