110
 SCF done       -222.567021604284          0.000664935406
C          -9.51868693777877  -11.70219016346557    6.58465622578584
C         -10.66720574878689  -12.40786865935160    6.36238749923539
F         -10.91209406758602  -13.52998634698098    7.04820134881324
C         -11.61408902064231  -11.95917608066231    5.41862159222801
F         -12.73526190066084  -12.66363502166743    5.23026617671842
C         -11.39493706670909  -10.81453898271785    4.70472249479514
C         -10.21361322167172  -10.07408381726503    4.89923995036486
C          -9.26009812069487  -10.52119801703331    5.86152586931043
C          -8.07329058822086   -9.78984566079615    6.08185075002865
C          -7.82803988531345   -8.67137982802598    5.32728192076796
C          -8.75590844608143   -8.26238633636029    4.32763422645144
C          -9.93847766572599   -8.91846332916929    4.13619860553848
C          -8.21639827794743   -7.10820503081849    3.58120071029401
O          -8.78429071073340   -6.45898618226042    2.74006233787223
C          -6.83032566954355   -6.91968617242729    4.12324745059710
C          -6.69648915425821   -7.76095102872742    5.30828201641045
C          -5.73607422322985   -7.65828479730372    6.28102326108338
C          -5.76704285845328   -8.40235440564952    7.48136112547544
N          -5.75135119764782   -8.94921291425348    8.48969300630120
C          -4.62801526333953   -6.78771199946103    6.25891055150344
N          -3.68984011006762   -6.12319511276029    6.29318425577616
C          -5.81683711898109   -6.16605361050207    3.62807410052024
C          -5.74331658232548   -5.36203228714222    2.45832968202436
N          -6.65005227237380   -5.32760304547199    1.50146510595982
C          -6.15406827769708   -4.51167121174131    0.54855539802912
C          -4.85975789597563   -3.94639098342092    0.94493859146860
C          -4.32300428990191   -3.08571624177180   -0.12029417839041
O          -3.29957279530574   -2.43617326361226   -0.12175816085714
C          -5.34069593605596   -3.21512621313097   -1.18186593063857
C          -6.44160619171384   -4.08956294948008   -0.72806650995713
N          -7.35610758580268   -4.25663153798111   -1.71636727373357
C          -6.89748896179467   -3.56273151682987   -2.73015384984538
C          -5.63735372322262   -2.89396404517282   -2.46619787325087
C          -4.56034630554772   -4.50397650711260    2.16495051025586
C          -3.41709251200311   -4.37250501483112    2.99522197231344
C          -2.37866406861590   -3.53722295776163    2.73174404578454
C          -1.18793224647287   -3.45175204485783    3.51300442860085
C          -0.87041343660305   -4.31324015247069    4.54665732231846
C           0.33046798265614   -4.30994102685761    5.24104216004559
C           1.29145590149268   -3.21796208742993    5.09260610550305
C           1.18150458359936   -2.25331307155566    4.14555381279006
S          -0.09180441226936   -2.18437964017278    3.00439178940900
C           2.26751593371005   -3.43169879341105    6.10617038104755
C           1.96049415926623   -4.59359101887089    6.82289007565438
C           2.90993674380353   -4.86515261036082    7.83150568210473
C           3.88697534423116   -3.92140174321974    7.85961560635902
S           3.70437331317465   -2.67902915898544    6.66629771476757
C           0.78098345861293   -5.19281588713358    6.26384931282904
C           0.22451322017961   -6.43041494625155    6.62673234431368
C          -0.59059685726483   -7.15759759122792    5.79817075095263
C          -1.34420260687932   -8.27362370246662    6.18690593153695
N          -1.29258862247127   -8.84324609600050    7.39484118338878
C          -2.28583866809886   -9.73380413732475    7.42623786729890
C          -3.06854140409300   -9.72168261746476    6.17739308256523
C          -4.23191379568769  -10.61784951608830    6.28947672386280
O          -5.18150503840334  -10.70590386538782    5.52813719025623
C          -4.02147522550456  -11.26203904257543    7.58379066749293
C          -2.84533579418961  -10.68226090700560    8.26408445521579
N          -2.66665514191726  -11.24705041651750    9.47268214293260
C          -3.63670178291399  -12.13280743738878    9.58796969347382
C          -4.51416341129472  -12.19397889545381    8.44833407465033
C          -2.43125741652195   -8.83488025102501    5.34555642264593
C          -2.72482329613854   -8.45619721246241    4.00759916489196
C          -3.86921335238919   -8.81231379277526    3.37246193545828
C          -4.18820104099818   -8.37306161432542    2.06653470525323
C          -5.33808894406661   -8.63514494138654    1.38577616116959
C          -5.75482276375817   -7.74171158733823    0.27023292304141
O          -5.03522488045675   -7.00197984834712   -0.36540730917494
C          -7.21489991397671   -7.90770562183912    0.17979787254070
C          -8.11563928236703   -7.19128211326947   -0.55444076860474
C          -9.48680019955924   -7.50580800567868   -0.44641570402289
C          -9.89884310035774   -8.59231595987696    0.37680142754235
C         -11.27007538890071   -8.90879183600722    0.45583745457025
C         -12.18761743996667   -8.16805523922301   -0.23465013813667
C         -11.77906705866630   -7.08161263082646   -1.03455346638100
C         -10.45567239769417   -6.75919450375724   -1.14380784829909
F         -12.70639323760918   -6.37187840268939   -1.69333059171397
F         -13.49173856066918   -8.46985891589080   -0.15209805167790
C          -8.94381009147106   -9.32193082008725    1.11844441462859
C          -7.62471983285736   -8.96099608891401    1.04980395852123
C          -6.44904642304195   -9.50026469958069    1.72356908693542
C          -6.38059457418185  -10.67803687354376    2.42302458096309
C          -5.16444367336232  -11.33737535923611    2.71287294556010
N          -4.20188451792342  -11.94360458704289    2.85903133390724
C          -7.51244601422135  -11.39883588434921    2.84783698951144
N          -8.41456997014608  -11.97353336209940    3.26626901152676
H          -8.80326384481014  -12.05769816235264    7.30914306992517
H         -12.13000424218355  -10.48623822874362    3.98650515401232
H          -7.36751548714010  -10.14868596272040    6.81259024744359
H         -10.64350404130588   -8.56668559422826    3.39826556312863
H          -4.89256212806882   -6.19966148436436    4.18634921765568
H          -7.44468734779554   -3.52611136967144   -3.65626990504485
H          -5.09478563430947   -2.29006499577654   -3.16613522963399
H          -3.39409848319290   -4.97760166519361    3.89056370453630
H          -2.42974498090873   -2.89680961146943    1.85984673725277
H          -1.62068958443242   -5.02820959406683    4.84738625140803
H           1.91403884959518   -1.46952648412755    4.03282079368865
H           2.87174502400309   -5.70461038034306    8.50093432817816
H           4.73013144097364   -3.86906119964939    8.52024479845164
H           0.45951722585502   -6.84148922848974    7.59889647224038
H          -0.70056687411685   -6.83981998180347    4.77278045511955
H          -3.72369643686631  -12.72487397158691   10.48212823006343
H          -5.35731110416998  -12.84740878410121    8.34149280438892
H          -1.99267180728903   -7.86086167367657    3.47650217246218
H          -4.59208457981669   -9.40859948054588    3.90935370165533
H          -3.50827026158693   -7.67242303499508    1.59122866530824
H          -7.80178157588868   -6.37526178984545   -1.18702020011637
H         -11.60073265098124   -9.74112494561094    1.05821578950108
H         -10.14833308828367   -5.92413502473934   -1.75329067980128
H          -9.27795255780086  -10.13425952105005    1.74462384352062
