116
 SCF done       -224.866435562009          0.006902890950
C          -4.41814701505363   -2.64123643938296   -5.81654684987499
C          -5.47069227971732   -2.45290333173896   -6.66619470765137
F          -5.45313208412857   -1.44477803739198   -7.55147499387944
C          -6.57647281043196   -3.32178826359055   -6.63538309940475
F          -7.59122140109506   -3.12727008219918   -7.49615788822993
C          -6.61594961422785   -4.37053509470140   -5.76106112822402
C          -5.54147178053156   -4.59952093088735   -4.88266812014202
C          -4.42757552780127   -3.71301061411899   -4.90235061442263
C          -3.35998374502418   -3.89183949527611   -3.99455669071652
C          -3.42677423048071   -4.90272709383720   -3.07350091369170
C          -4.53895771576080   -5.78834370914480   -3.06633397371562
C          -5.56069993536169   -5.67018916662747   -3.96261645841159
C          -4.42091486816045   -6.70026446526161   -1.90905354799572
O          -5.04207914147198   -7.72219119177690   -1.71345318493464
C          -3.29562191671079   -6.15449656623944   -1.10176571652167
C          -2.56215721592129   -5.23081067218057   -1.94133605499256
C          -1.30456888393554   -4.72407002591908   -1.73308520006741
C          -0.48646222709517   -5.02026056968045   -0.62275439430150
N           0.22106413188911   -5.20956789689030    0.26232067724637
C          -0.65226555862797   -3.87550860169451   -2.65105950867808
N          -0.07000457134779   -3.19935229531008   -3.37280745609473
C          -3.01821700530780   -6.47304787006489    0.20476263050475
C          -3.90436674391063   -7.03812832776699    1.13952231351719
C          -3.53439020930632   -7.80013608308483    2.23791834276316
C          -4.71040529919121   -8.27384603419188    2.86808056141422
C          -4.76183201354191   -9.07408070224752    4.01388676608226
N          -4.81708226592016   -9.73381613397915    4.95285727369226
C          -5.82935639646758   -7.79431241707505    2.16540898319372
C          -5.38091163856693   -7.00117833346835    1.11251395442702
C          -6.15521529719903   -6.20471106460805    0.24530189699119
C          -7.40784689945916   -6.61646780093354   -0.40556175644459
C          -7.76384749547649   -5.57128641976837   -1.29884847864677
C          -6.80310276695976   -4.57359352230148   -1.21266480501514
C          -5.80726764004972   -4.96576494971726   -0.27777396123874
C          -6.74952696696822   -3.40709614536924   -1.98750989499043
N          -6.67268144476751   -2.47730842577459   -2.65763309806985
C          -7.97371028922105   -7.86470209291604   -0.28919196264489
C          -9.04149329544980   -8.35629012304271   -1.05368135757207
C          -9.55968756308097   -9.60529872822026   -0.85499152035386
C         -10.56260005388568  -10.20403878370523   -1.63891834153212
C         -11.17506228006502  -11.43095562800612   -1.40943796028386
C         -12.09733764347725  -11.78369258800455   -2.37872845080970
C         -12.20969945178072  -10.84403290772392   -3.39591462171061
S         -11.16848588720808   -9.48699057724769   -3.10766877073126
C         -12.94675905506886  -10.96278934777028   -4.59801047045012
C         -13.73114551288662  -12.03372462429620   -5.01177439275835
C         -14.16798275698219  -11.91318089237003   -6.31953865632959
C         -13.68892492218392  -10.77840341200896   -6.96773981858225
S         -12.81114770059638   -9.77309224290641   -5.84809661173304
C         -13.86565019135528  -10.50012341020909   -8.33965953271693
C         -13.10622011103155   -9.75862727797737   -9.20833674814474
C         -13.60868651368556   -9.35660349493321  -10.48182493274997
C         -12.69943618263185   -8.49037494806016  -11.06444631504303
C         -12.85130221381386   -7.86349149264827  -12.31195823223513
N         -12.98593451234566   -7.36115941351847  -13.33326476810670
C         -11.57456420800130   -8.34951776427133  -10.20705220674573
C         -11.76989130538477   -9.13975432953894   -9.07773369463445
C         -10.78941393665176   -9.41437929858698   -8.10863797062813
C          -9.73138984514529   -8.48799498942895   -7.67715911853468
C          -8.98683529295455   -9.13845703361640   -6.71962927532365
C          -9.52652592506218  -10.45151489587479   -6.53931200905256
C         -10.60373479895055  -10.61724736662728   -7.40235344626260
C          -9.13810907337044  -11.36179560586483   -5.55586247836400
N          -8.88788430900942  -12.08977454115209   -4.70111637000095
C          -9.69074928176559   -7.13195202857597   -8.10768644276712
C          -8.61952094667676   -6.31198402211870   -8.27969735767537
C          -7.25851518423930   -6.60706405370681   -8.03935404775145
C          -6.20435025229186   -5.90742421433777   -8.55572915621683
C          -4.87833083459997   -5.92468409090091   -7.89011544489243
O          -4.51687112811829   -6.67024949940675   -7.00546483416886
C          -4.14500597601263   -4.77733083851693   -8.46146936342733
C          -2.93204545924448   -4.26651704312240   -8.09901814391765
C          -2.44837149663591   -3.11168090665005   -8.75530651702512
C          -3.23420101780532   -2.50792975593761   -9.77939048835207
C          -2.74481641982419   -1.36082517050758  -10.43450251032966
C          -1.52988887107740   -0.83816579898325  -10.09050798372047
C          -0.75714455693746   -1.43026188744568   -9.07148189444613
C          -1.20601546623911   -2.54199197045119   -8.41450782435962
F           0.42661981194197   -0.89140811622402   -8.75429582268663
F          -1.05784604733068    0.24418826351888  -10.72095001585407
C          -4.48749147813445   -3.05757476883290  -10.13276155494920
C          -4.93449301328432   -4.17653020806569   -9.48421422075154
C          -6.16283444263573   -4.95010986851715   -9.63592267450221
C          -7.00176097812628   -4.91371186111643  -10.72023426608483
C          -8.01970412635336   -5.85840248817597  -10.95954686383440
N          -8.82383481689583   -6.63406858492714  -11.22626803094160
C          -6.87421416255222   -3.99347572479853  -11.78210176689922
N          -6.83244074394427   -3.26550439772235  -12.67018029340346
H          -3.58267446218217   -1.95961212662468   -5.84474371797501
H          -7.47539472636781   -5.02244513175491   -5.74744710531216
H          -2.53425741278602   -3.19928718025138   -4.02584983311937
H          -6.39098242434219   -6.35949880278320   -3.94327375242598
H          -2.02900294713191   -6.24778271649903    0.58800173710742
H          -2.53165441958865   -8.05472229634325    2.52693234803581
H          -6.84916238417488   -7.91641700234217    2.48148186511134
H          -8.62475281947725   -5.55149214528173   -1.93973253489885
H          -4.97406453168607   -4.35626143417664    0.01872049132078
H          -7.52937911394495   -8.55069533988897    0.41930462911330
H          -9.45675431737404   -7.74099003736386   -1.84031856306501
H          -9.17893308154449  -10.20912445559230   -0.04044437214064
H         -10.93786835700304  -12.04066787320942   -0.55608007966605
H         -12.65673189331742  -12.70066286243796   -2.36740840742905
H         -13.95078694330185  -12.87553168239630   -4.38248395729039
H         -14.75769487866169  -12.65654567805676   -6.82584827717358
H         -14.74191064063979  -10.97184837227769   -8.77522115317083
H         -14.56824205265306   -9.62854067500702  -10.88097770958393
H         -10.67764536232712   -7.81839751761391  -10.46912303702692
H          -8.17715510861254   -8.74620617117789   -6.13366884634502
H         -11.15779872494435  -11.52637263982314   -7.54470644457018
H         -10.64955457007781   -6.73086958879576   -8.41167640453903
H          -8.82264092711699   -5.32723068822753   -8.68272165490175
H          -6.99745259861982   -7.38523124069683   -7.33537482487170
H          -2.34930847299414   -4.73482243089375   -7.32040386646432
H          -3.32628398665027   -0.89443612359414  -11.21376775395319
H          -0.60303331156285   -2.98154113544884   -7.63563402175066
H          -5.07296933867033   -2.56937102886157  -10.89499810110327
