120
 SCF done       -232.625298422312          0.000481080082
C         -14.54562164059095   -0.18070436372090   -4.73654367193194
C         -14.67576409974542   -0.69514811180516   -5.99584147470264
F         -14.96110146085311    0.10814370180066   -7.02577601728608
C         -14.51599575482057   -2.07710762350963   -6.22622214892959
F         -14.65117404900768   -2.55532730325142   -7.46883515034564
C         -14.22836086779278   -2.92474479052547   -5.19382837676836
C         -14.08507701880834   -2.42455230124796   -3.88541361310018
C         -14.24570197059718   -1.02758190383448   -3.65105824983530
C         -14.09546407786979   -0.50120613225614   -2.34895757853501
C         -13.77036759890266   -1.34299852649885   -1.31780227989634
C         -13.59580402499412   -2.73434784452118   -1.56330272867989
C         -13.76512866748145   -3.27533405043318   -2.80575855007618
C         -13.16083969584948   -3.39630622448909   -0.32151116276162
O         -13.11657966743156   -4.58576187453066   -0.09501660976764
C         -12.88550187161282   -2.28359066289623    0.63561330548395
C         -13.48886679795887   -1.07617561354246    0.08905032276323
C         -13.74705343029010    0.09121913721793    0.75153350014302
C         -13.49366653211978    0.30589666033094    2.12358966609565
N         -13.30617160795085    0.53228089312528    3.23287449138751
C         -14.35087619904362    1.21648656224618    0.14836791827277
N         -14.84384975519290    2.15509796784319   -0.28929708521510
C         -12.13634461353193   -2.38558204298253    1.76522238331274
C         -11.29124905862510   -3.48144029600943    2.10632910224980
C         -11.08131405918133   -3.96066672586921    3.36853567566708
C         -10.27879582376000   -5.15564900455499    3.27687548206143
C          -9.83396745931882   -5.90320537005837    4.37622963512682
N          -9.47324629556223   -6.51846598007741    5.27497004758315
C         -10.01863634816823   -5.42566322079134    1.95257297922339
C         -10.58612067193810   -4.38259183630233    1.16296942989015
C         -10.42348817423055   -4.15837608764902   -0.18554864160466
C         -10.28962834439424   -5.18226228410951   -1.25321138761570
C         -10.32238505383058   -4.51244010607498   -2.45703771425924
C         -10.44022344225717   -3.10989003370323   -2.20339357135971
C         -10.50484911390221   -2.89603361127927   -0.84056632855680
C         -10.59446767868357   -2.12673176975750   -3.19027368654333
N         -10.79198782243376   -1.33234535397328   -3.99484795436453
C         -10.35118059883164   -6.57535258397977   -1.03503508459529
C         -10.20505497364449   -7.52073355465425   -2.01134773397225
C         -10.30556339405602   -8.91117194407600   -1.78418010029385
C         -10.80665239331283   -9.54800332391288   -0.67009561195074
C         -10.89473061048008  -10.94944421281386   -0.94437398703289
C         -11.33292561724699  -11.91933708847478   -0.03045456433413
N         -11.69447154222522  -12.71541940339802    0.71225961283134
C         -10.48413204697413  -11.19162959901539   -2.24050605209162
C         -10.05290674171635   -9.95930685613470   -2.80785895846125
C          -9.40206499068271   -9.80930896875755   -4.01201614423469
C          -9.41767379112012  -10.77548248734477   -5.14097196218067
C          -8.46560123805730  -10.36548987732280   -6.03963272894196
C          -7.85633529413632   -9.16334675963981   -5.54279742139071
C          -8.44923246369653   -8.80551929927730   -4.35045634644000
C          -6.82300598628245   -8.46841780369762   -6.18746397070341
N          -5.98266704244665   -7.89694579665955   -6.72024860363942
C         -10.37589724308582  -11.80933872996883   -5.29563338866143
C         -10.26920407818200  -12.84001896676507   -6.17809702233524
C         -11.26259344923966  -13.84226426182452   -6.33546775598413
C         -12.59055486278763  -13.74800417532110   -6.00909128993711
C         -13.26861749852057  -14.92669617820649   -6.48116736431951
C         -14.63862849625513  -15.17337810869628   -6.30560326040669
N         -15.76064342296191  -15.36270173910247   -6.16022199389220
C         -12.37001295452829  -15.74516334785574   -7.12080587472846
C         -11.07219150760533  -15.14837042715141   -7.01848440418200
C          -9.88435741938872  -15.75683984429279   -7.32955202818798
C          -9.70950037742714  -16.97821788057328   -8.14881049084955
C          -8.40052713541181  -17.35618213111468   -8.05174023666940
C          -7.71420415878423  -16.42207044487001   -7.18455966811434
C          -8.59146109078733  -15.44983306066311   -6.78275263736005
C          -6.36337899101412  -16.51593854764610   -6.81875342146597
N          -5.25961953992260  -16.58521122451933   -6.51380687610711
C         -10.68722861045269  -17.56577285846897   -9.00489418636467
C         -10.66029063438159  -18.87035384304637   -9.37813517107469
C         -11.59757122850896  -19.41913545455074  -10.28187138826657
C         -11.63725236029502  -20.68307309839975  -10.78930208941697
C         -12.89800863590360  -21.15931514952119  -11.42652121127121
O         -13.82903382321938  -20.47375251912559  -11.77862324951008
C         -12.77944805780585  -22.62907295647332  -11.47087271612284
C         -13.71330916936183  -23.55280824375382  -11.84272590010951
C         -13.39158207214807  -24.92581415723021  -11.76017285443391
C         -12.10481334541588  -25.31416837490507  -11.28581335937538
C         -11.79338853835125  -26.68570823545810  -11.19407346505555
C         -12.71495411155500  -27.62682822631228  -11.55842395292449
C         -13.98684809758478  -27.24142644965806  -12.02911286878641
C         -14.31929743370433  -25.91947183795777  -12.12882857686856
F         -14.87000342200161  -28.18550240878935  -12.37738977208394
F         -12.41785039717383  -28.92897107698626  -11.47055905155002
C         -11.15587731930735  -24.33421909950023  -10.91480269253051
C         -11.48509579644950  -23.00844634380581  -11.01322199645321
C         -10.71543039760286  -21.79762302562430  -10.72741914836905
C          -9.34971704505058  -21.74710189777614  -10.62721595843048
C          -8.57786055477711  -20.56814178519918  -10.57947645421735
N          -7.88520508952366  -19.65241832416023  -10.56521610048167
C          -8.52199067672961  -22.89101614585704  -10.65028417397853
N          -7.80163147958119  -23.78409472709200  -10.64601462652229
H         -14.66880381684302    0.87908970787228   -4.57792040964185
H         -14.10947990071334   -3.97934271224300   -5.38736319554676
H         -14.21932293211812    0.55965308898720   -2.20224084742671
H         -13.63256379697134   -4.33506420002780   -2.96515737288449
H         -12.14552889140055   -1.56993384356896    2.47836150107743
H         -11.48914248050778   -3.56928565976230    4.28175328161702
H          -9.35654273917746   -6.19249673952908    1.59696721045476
H         -10.29992986166168   -4.94049585280142   -3.44119563469729
H         -10.50935175748433   -1.93769381132737   -0.35787182749250
H         -10.54190368088282   -6.90305364389097   -0.02584566103226
H         -10.00869892937515   -7.19963663595059   -3.02336616033405
H         -11.13029395359922   -9.09808224284350    0.24890196696368
H         -10.37739142502143  -12.16287979737387   -2.68357184000643
H          -8.22693396653788  -10.81054899270208   -6.98680198887698
H          -8.13469213952976   -7.99364264096238   -3.72361928385964
H         -11.24319605552531  -11.76748739439565   -4.65263323920573
H          -9.38460343714512  -12.91584040883428   -6.79295839160706
H         -13.08852187838068  -12.92517727519780   -5.53224809777304
H         -12.58339055456569  -16.72065019729961   -7.51186002057005
H          -7.91950130762049  -18.15899283002314   -8.57945064882043
H          -8.37639409733309  -14.67041681725473   -6.07787123350498
H         -11.45761292633156  -16.91896761533775   -9.40463075358298
H          -9.92111114907405  -19.52140399070593   -8.93731288196346
H         -12.43461409489643  -18.78932023921658  -10.56830878533122
H         -14.68562608455757  -23.23994471498766  -12.19155784464011
H         -10.82365285713647  -26.99798328029517  -10.83914649932558
H         -15.29676473903646  -25.64082732152993  -12.49021150855574
H         -10.19497054798595  -24.65960294432937  -10.54980145804121
