98
 SCF done       -210.335310429538          0.000742764147
C          -7.16156833982879    1.45716839598173    0.70377563383395
C          -6.64284777090983    2.54817600855609    0.06507268268296
F          -7.07443626200448    3.77723703172047    0.37316701095179
C          -5.64879460204910    2.39591257414629   -0.92389286680073
F          -5.15911737739702    3.48366776555458   -1.53155642907951
C          -5.18722828054867    1.15397989692444   -1.25962839925804
C          -5.70017458521308    0.00948739598806   -0.61784165306330
C          -6.70559923303435    0.16212397061691    0.38242923738547
C          -7.23172324183521   -0.97000750317675    1.04272015926040
C          -6.76558055949606   -2.21741133642872    0.71489643894930
C          -5.76466968038786   -2.36174034517398   -0.28919412169738
C          -5.23749223333333   -1.28449465361728   -0.94308569171575
C          -5.44571245882845   -3.78691235038642   -0.46638751551044
O          -4.59440390257411   -4.27802046615514   -1.16800907214487
C          -6.39828345529303   -4.51456688480981    0.42863338317430
C          -7.09705252755968   -3.53113262068428    1.24386987942352
C          -7.84763681970382   -3.78892084150254    2.35619777037478
C          -7.97062713345479   -5.05243044799330    2.96531417111116
N          -8.05712693536015   -6.03010587187927    3.56380087044732
C          -8.51078673959445   -2.79897095283792    3.11503950341760
N          -9.08601558130605   -2.04984198613728    3.76578899517838
C          -6.59994774397103   -5.84401227157723    0.40304929434147
C          -5.89399405231499   -6.77907074787666   -0.44004412032255
S          -5.11616476628562   -8.10188236456335    0.32274187506543
C          -4.57070237751906   -8.75520342365820   -1.20116124633627
C          -4.98029630315951   -7.94860203919960   -2.25571698341417
C          -5.73726159401036   -6.83327421400111   -1.81370993484753
N          -6.32199761478791   -5.89717246821299   -2.71791113044382
O          -7.18619582072970   -5.16086600556081   -2.28084782437055
O          -5.93587807833634   -5.91251934225857   -3.86242774084726
C          -4.68821749074022   -8.24445626384598   -3.60241676780929
N          -4.42726884123513   -8.55273223293062   -4.67444534737718
C          -3.80603391264585   -9.95217944599405   -1.25515153556145
C          -3.48684786590367  -10.59296524949209   -0.10279099019662
C          -2.74542494631035  -11.76862106411745    0.17592824521497
S          -2.59607459560449  -12.08198697521306    1.88436664476649
C          -1.64187973524284  -13.51579048025331    1.64061380467294
C          -1.44548028874866  -13.72851193887344    0.27760202934189
C          -2.06501822279743  -12.75269042631069   -0.54367044197948
N          -1.96115667136976  -12.86256690249096   -1.95959173637867
O          -2.67304681993017  -12.16145394747807   -2.64860686102034
O          -1.16303479020235  -13.67015094090985   -2.38614727571141
C          -0.71002032226688  -14.84012897415976   -0.17969894624684
N          -0.10698180768639  -15.78504954085480   -0.42120976895124
C          -1.18484376873862  -14.29960619977011    2.71953089040358
C          -1.43028293387955  -13.96553394166766    4.02127923537306
C          -1.03514599459081  -14.71847765192578    5.13250677661580
C          -1.29430598577104  -14.34718179876745    6.43077974543875
C          -0.97506968662423  -15.07143667698539    7.60493633301478
C          -1.36679469188758  -14.46469473670839    8.75860978628342
C          -2.00626742414355  -13.21728634548385    8.55947818116628
S          -2.10705246555377  -12.84825777486110    6.85968052154743
C          -2.49746692673747  -12.36778056057797    9.53538356011317
C          -2.54420850117378  -12.59000643542442   10.92793215687623
C          -3.10397078494336  -11.56345581599726   11.62569493968782
C          -3.54355368056110  -10.47865107084167   10.82697417698995
S          -3.19329955972003  -10.80658035626997    9.14988665307716
C          -4.06761277505364   -9.30645018546669   11.34700613145517
C          -4.51280264919776   -8.14826061648562   10.72004013273884
C          -4.88649756120074   -7.85795091980892    9.41877634748444
C          -4.84190779966246   -6.43932899546955    8.99051009214513
O          -4.63288215432977   -5.46984104382357    9.68194209282719
C          -5.06880504676511   -6.46440758929220    7.52178381112357
C          -5.32599885231076   -7.78856219893225    7.12537980060455
C          -5.55352273309738   -8.07403087687621    5.79052406130220
C          -5.51212754124356   -7.03529050253646    4.86154524391170
C          -5.24706460688014   -5.71786861616317    5.26787435666782
C          -5.03531583523579   -5.42519503485465    6.61962390363598
C          -5.22102098465846   -4.65866184870707    4.33053399317745
N          -5.22027551974811   -3.75017508912692    3.63126084115133
C          -5.67429876031799   -7.31749476603813    3.40868496543344
O          -5.09583700506472   -6.68120018689464    2.56205988592259
O          -6.45021558096362   -8.34498810853074    3.06652093862717
C          -5.32444302036730   -8.64804962397899    8.31376964777691
C          -5.85231528787641   -9.92349889534651    8.35783084474203
C          -6.15070902003229  -10.59514335138908    9.55765698586570
N          -6.42939246175393  -11.15868696646592   10.51835728871015
C          -6.24669013505240  -10.63955947529138    7.21457274506793
N          -6.54871618776072  -11.25722275622006    6.29374732887322
H          -7.92033721334066    1.59147886151742    1.45890674805948
H          -4.42710214998351    1.05467742203328   -2.01865162245097
H          -7.99436831285557   -0.82511243090756    1.79105530923189
H          -4.47924159583006   -1.41939871848517   -1.69941632391133
H          -7.30678582022758   -6.29848813565222    1.08605282849463
H          -3.51044795305286  -10.31743803113871   -2.22769666377725
H          -3.84914147504095  -10.13019798751764    0.81111452815511
H          -0.62547910839035  -15.19207161187214    2.47363361902262
H          -1.98136438009805  -13.05273645393956    4.22060225042130
H          -0.50839948881616  -15.64917504875932    4.97005006572213
H          -0.47116413174538  -16.02039448273650    7.55693345022726
H          -1.20864626384800  -14.87211840859899    9.74030253362696
H          -2.18038741694811  -13.49684012407844   11.37501875639865
H          -3.23395956404909  -11.55490576599962   12.69279222786214
H          -4.03846129634184   -9.26155654834916   12.42921185931908
H          -4.51766599086996   -7.26496403597050   11.35392971583181
H          -5.71404735035602   -9.08961309268470    5.46227306889536
H          -4.84508795001612   -4.41401685896561    6.94552167171662
H          -6.97682623968099   -8.69080105358109    3.80208835221615
