108
 SCF done       -207.094613804725          0.000843394601
C          -1.72062773705086   -0.10167850007407   -8.18730526346379
C          -2.47078818155428    0.02233041888530   -9.32330669338415
F          -2.14253115671543    0.93258933528584  -10.25116829340237
C          -3.59383876590517   -0.80110027535587   -9.53415226947789
F          -4.31148521753331   -0.65888300651384  -10.65807960782223
C          -3.95207837329541   -1.73782857917876   -8.60531632501644
C          -3.19881312510815   -1.89041031571282   -7.42559705197891
C          -2.06304092238342   -1.05768554943353   -7.21064819108757
C          -1.29070852512027   -1.19428120824738   -6.03310678199889
C          -1.64545635649761   -2.13439526888399   -5.10363390771181
C          -2.77895639599491   -2.96420441138610   -5.32775738252104
C          -3.54259415390707   -2.85665810521556   -6.45283799892987
C          -2.93349484063391   -3.90478073057405   -4.19732574473882
O          -3.76156954046031   -4.78898639067488   -4.10530437126046
C          -1.80930198282036   -3.60827486737141   -3.28527618520432
C          -1.05211266052356   -2.50605310379790   -3.82160255042504
C          -0.01509817717010   -1.85651535809688   -3.19650424306932
C           0.45542402147371   -2.17655170330992   -1.90723587697790
N           0.86653783399662   -2.37471182180576   -0.85320756414914
C           0.67602882739265   -0.76144638021079   -3.74998205796205
N           1.27535994674662    0.13004213341837   -4.15641826487189
C          -1.41507992246181   -4.43336984422755   -2.25275207704811
C          -2.21394675774333   -5.38513022179844   -1.61348717325232
C          -3.60264631576626   -5.39712930503801   -1.35341558821926
C          -4.04737225681294   -6.61152178539185   -0.75756625943568
C          -5.38975665435923   -6.72621767120966   -0.35833219422624
C          -6.25336905157697   -5.68575537288680   -0.58093269285586
C          -5.80853897786754   -4.48843229529564   -1.15857481526662
C          -4.49743538346372   -4.32952022658919   -1.52133455198968
C          -2.99514432857395   -7.54022150762734   -0.56679603308501
S          -1.47334450227820   -6.82593299331365   -0.97933467813021
C          -3.01255493000226   -8.89096150041373   -0.17139370541126
C          -4.09651566941272   -9.71680531751190   -0.23366686357267
C          -4.12867581496336  -11.07545536399605    0.15781997212686
C          -5.28473761947108  -11.82101718498271    0.00141410126191
C          -5.43987381457494  -13.15189513624516    0.35529165956884
C          -4.28927595156984  -13.94075024789527    0.81143433850445
C          -3.06622737327751  -13.42112170049230    1.05702858240254
S          -2.67055702055658  -11.76341269447763    0.86115887787504
C          -4.75979206073242  -15.27981981056878    0.90878101092801
C          -6.10920500631770  -15.33158699540152    0.55764795901492
C          -6.63198115803312  -16.64045311481182    0.64257814256471
C          -5.68518069517491  -17.52880388129390    1.04314698088298
S          -4.13285226563849  -16.81975887790573    1.33809588969514
C          -6.57072675687613  -14.00381141038697    0.24585269203771
C          -7.90632564754472  -13.69585352114828   -0.06064013146268
C          -8.48027956409721  -12.45195145218814   -0.02430340464725
C          -9.79977176397895  -12.16004327091556   -0.38324698974768
C         -10.41694713041851  -10.88384850063819   -0.36192093920344
C         -11.77084776164746  -10.90958325601990   -0.79751448221258
C         -12.46714828815625   -9.70041930033245   -0.95560314478134
C         -11.85683544061032   -8.52256021945469   -0.60950545504037
C         -10.54741214900400   -8.50518023489707   -0.10916833554780
C          -9.82443625480636   -9.66421407756024   -0.00035311037236
C         -12.21786581797358  -12.21439120912985   -1.11319386787420
S         -10.90924549320155  -13.35574540747097   -0.96678326898129
C         -13.47601039936767  -12.68140881336537   -1.50043071908041
C         -14.67992922569264  -12.05803133546899   -1.27393565013311
C         -15.92299321811240  -12.54410211122734   -1.69864396115689
C         -16.22884441863799  -13.43923901163747   -2.69879457000112
C         -17.53725316509530  -14.13296818722913   -2.64763013404502
O         -18.46517262987846  -13.88503202926801   -1.90822606233707
C         -17.44992706960391  -15.21513040395902   -3.65128732876757
C         -18.34544188778861  -16.20596856754661   -3.92772700045819
C         -18.03053383359991  -17.15707127017464   -4.92506422984263
C         -16.78619517997716  -17.06197348994844   -5.61196486183158
C         -16.47555625880439  -18.01601775065206   -6.60113881715596
C         -17.35984847188228  -19.01539735670895   -6.89658006291799
C         -18.59012160560698  -19.10788536546983   -6.21734813631706
C         -18.92005933916424  -18.19856628357199   -5.25167189614792
F         -19.43833320227789  -20.10016115158912   -6.52600636830308
F         -17.06182172539591  -19.92137439457168   -7.83939139396828
C         -15.88078696075976  -16.01870910302764   -5.30648740406758
C         -16.21202775935434  -15.10369791957688   -4.34457845352997
C         -15.50698399294300  -13.92080828161551   -3.84606492957275
C         -14.49600244373129  -13.27911549952647   -4.52502622507391
C         -13.99523120671289  -12.01156889015929   -4.17835818610614
N         -13.57442154563536  -10.96404881151942   -3.96425818228142
C         -13.89237705082508  -13.77811404807536   -5.69422343761208
N         -13.34418612979871  -14.14938230146947   -6.63334141499753
H          -0.86384748129306    0.53746702778952   -8.04130359502104
H          -4.81424125221850   -2.36178211141618   -8.78184345840567
H          -0.43211008551255   -0.55563680983552   -5.90155816310936
H          -4.39664648391767   -3.50021875742455   -6.59977832587472
H          -0.37311155180611   -4.41137078170491   -1.95478523811852
H          -5.72734091181107   -7.60552664230652    0.16587156611480
H          -7.28563752402298   -5.77139987420604   -0.27615114032352
H          -6.50556551694546   -3.67458411930892   -1.28825420638444
H          -4.14118552797152   -3.38626764191405   -1.90292406947186
H          -2.06083040477567   -9.30706426511931    0.13564429291667
H          -5.01605049405143   -9.34117868398813   -0.65776894258718
H          -6.11083326378087  -11.31093887974558   -0.47248070168568
H          -2.24276868469914  -14.02065099418020    1.41142996254238
H          -7.64638770581898  -16.91555900320206    0.41833937909767
H          -5.79647914496732  -18.58522450375894    1.19063370613311
H          -8.54452866154407  -14.53618891143236   -0.30702495420478
H          -7.90322458233424  -11.61741179146259    0.34246024697376
H         -13.45008012883900   -9.69783541740694   -1.39430475395812
H         -12.38439885885865   -7.58939809985747   -0.73513563442938
H         -10.09858767405100   -7.56238747434295    0.16521488198902
H          -8.80340155494562   -9.63905977023044    0.34888458441193
H         -13.49587465948699  -13.67411248274530   -1.93634811295584
H         -14.69841994353125  -11.19435466586642   -0.62555927972449
H         -16.78677072294733  -12.22424140850130   -1.12308774828718
H         -19.28206645949919  -16.26442424795012   -3.39450667107859
H         -15.53923320244220  -17.95724673024904   -7.13383701440913
H         -19.86634032406727  -18.28264855415630   -4.74054887763710
H         -14.94402749703248  -15.97575358290760   -5.83879228246663
