108
 SCF done       -209.648934566798          0.000753158862
C           3.55571163050161    3.85711912909475    4.96865007545152
C           4.05752353741049    4.72917025019820    4.05002691514796
C           3.10721894564491    5.02535380014426    3.05474106809855
C           1.89655730053898    4.35532520254347    3.25610887018915
S           1.92376052202806    3.37344472345819    4.65117031532320
C           0.99735010325725    4.71343641530874    2.20727188504941
C           1.65343529509243    5.61125882101826    1.35345528794865
C           3.00024970624280    5.83500531162438    1.85141176602821
C           3.96286234680633    6.62497363035587    1.29360902590600
C           3.73899846920973    7.36480835597181    0.11338772033430
N           3.56922968069138    7.97789283620364   -0.84074319269288
C           5.24782054257865    6.75784332344709    1.85938435726217
N           6.29401312907843    6.87121162028710    2.31586941263319
C           0.85814974356570    6.00590263834532    0.27484112224035
C          -0.39087613503415    5.43015865667113    0.32179144317561
S          -0.59192112866977    4.38115050750889    1.70917018425446
C          -1.43483100824227    5.57065485498062   -0.66945912352710
C          -1.14484037459170    5.45278491891868   -2.03482771015297
C           0.12975477865888    5.10622313435753   -2.70994124086844
O           1.19577550515671    4.81810270943555   -2.22715952743957
N          -0.15537756829496    5.12197364470967   -4.07950198608593
C          -1.50673314525956    5.38257908578350   -4.34037224260769
O          -1.99965041563891    5.42002242495341   -5.43791734404336
C          -2.13390850644130    5.57880648396574   -3.01853900209862
C          -3.45913019840340    5.81660549657602   -2.70927781189959
C          -3.75992610308800    5.94074348955427   -1.35870815551303
C          -2.78609374126368    5.83133826759943   -0.35882343797029
C          -3.29603776718532    6.10015823546068    0.99209302133598
O          -2.68985802468468    6.16602499547724    2.02358648019615
S          -5.07049502507946    6.38862680866529    0.91028473893165
C          -5.12194953949486    6.21935129438491   -0.87560982672459
O          -6.12054902719660    6.32579942587371   -1.52314024238162
C           0.73089235850754    4.90864386327247   -5.12965221363203
C           2.05760216401520    4.77112661685099   -5.01814037388295
C           2.93599451391462    4.58074924477136   -6.13602258812264
C           2.62752086539480    4.37362344606454   -7.45158980946150
C           3.75973984026083    4.24916778824734   -8.30039005997196
C           4.95922806598402    4.37823715403789   -7.55334169100963
S           4.65953485018176    4.62349982845703   -5.86051720532661
C           6.25140851675340    4.34039606914372   -8.06819264594837
O           7.21843190917524    4.50329033473497   -7.13048771775148
C           8.57384226527966    4.62185317619225   -7.48389700748238
C           6.37607774130533    4.15223264020295   -9.45731189571249
C           5.17676879752913    4.01956452230912  -10.20233758940578
C           3.88509467446507    4.05325430298188   -9.68958418565287
O           2.92065850876254    3.89805792909276  -10.63245370550633
C           1.55912403176159    3.81088240458096  -10.29370479502231
S           5.47559432911994    3.80957044900832  -11.90006904914202
C           7.20178889318659    3.90605906579795  -11.62908016067072
C           7.50945709601879    4.06667538222848  -10.30895234039534
C           8.08989120834095    3.78324895109086  -12.74377995551201
S           7.54152786021858    2.90884698208689  -14.13452372486851
C           9.04937780852860    3.16015982966243  -14.97059383063102
C           9.93437989357952    3.87400078282082  -14.17400862266152
C           9.37820159674276    4.25384465495398  -12.93189228552117
C          10.08823562740301    5.17277119014808  -11.96986325882746
N           9.14848125574650    6.11364219493381  -11.37548450458171
C          11.25240729923661    5.86726855053630  -12.69159524469166
C          12.11404442900900    4.82897097414755  -13.38707683353505
C          11.35453529101750    4.19677350770722  -14.56399444806525
N          12.01526012142934    2.99983404410847  -15.06993378569040
C           9.08651685116409    2.66855398207495  -16.30564945874259
C          10.04902248382518    2.83111781501588  -17.24056190463403
C           9.94724328630814    2.34434381405712  -18.56971322425284
C          10.87372663657492    2.52872544426626  -19.58119612314570
C          10.47462288540936    1.93715763666787  -20.78065110632951
C           9.23631127529423    1.28989925214831  -20.68241323683111
S           8.55793037941161    1.41435144933404  -19.12080163686593
C           8.92355122257176    0.72134434433777  -21.95013478454440
C           9.96198398289496    1.01566148193846  -22.84190435990788
C          10.97007946680632    1.79082031715849  -22.14471495050264
C          12.13333393746217    2.29193412715068  -22.65362567755411
C          12.51143622706082    2.09922246345717  -23.99841014369299
N          12.82477204644808    1.94805964814204  -25.09135736612791
C          13.03415923099379    3.04297179354542  -21.87107473702989
N          13.77055967887827    3.65595682799090  -21.24014366630675
C           9.73275678826746    0.48773713776598  -24.12763306648239
C           8.55023813677506   -0.18356156668055  -24.18451017694393
S           7.68242948199374   -0.19287216068217  -22.68234801069551
H           4.04903919219152    3.45846132864987    5.83244539828559
H           5.05252226441466    5.13309352451445    4.09101691161304
H           1.16147566291983    6.69577408396607   -0.49048920870623
H          -4.22259187647303    5.90407335539162   -3.46535791384090
H           0.21638705437301    4.89288996541749   -6.08090374728078
H           2.52854246451493    4.81911168383766   -4.04834232683522
H           1.60928828977962    4.31577884206543   -7.78141966335633
H           9.08841960294657    4.87231988946187   -6.55631872192440
H           8.72939629696194    5.42023762936357   -8.21444437173721
H           8.96983126015397    3.67666176103486   -7.86746356929243
H           1.18373055309226    4.75700276588737   -9.89320623263997
H           1.37169904893496    2.99854262456465   -9.58607473049698
H           1.04673119364417    3.59426991431091  -11.23073068718576
H           8.52640087829785    4.10456578808694   -9.98164453538845
H          10.50586375863340    4.57641250709393  -11.14370304689789
H           8.65036398647418    6.61609495735660  -12.10239169216564
H           9.65264653760526    6.79513693588030  -10.81791761869149
H          11.84198200439113    6.43261947725411  -11.96571787636652
H          10.85446085328600    6.56969240460045  -13.42941717676835
H          12.38312333227827    4.04622585703680  -12.67101338416469
H          13.03799671514989    5.27903395563483  -13.75711760221822
H          11.32993266071184    4.92171587056772  -15.39178593152415
H          11.98698430507477    2.26246648952420  -14.37439311077526
H          12.98827763598963    3.20047214763062  -15.27458482542009
H           8.18669610167749    2.13579208245683  -16.59556926146016
H          10.96911027942200    3.33673935817520  -17.00191883922399
H          11.78950616323582    3.07195601528399  -19.43533440977725
H          10.39946026400811    0.59486915411428  -24.96368853018589
H           8.11825417781064   -0.68583055036806  -25.02664098181267
