120
 SCF done       -236.228271045585          0.000444229920
C          -9.68813330629966    0.83083990161901   -2.75799693151285
C          -9.44431919096319    2.17052758957885   -2.87800025053040
F         -10.33954434853280    2.96712072608964   -3.47916802839536
C          -8.25437649184871    2.73022949224239   -2.37373124935220
F          -8.04023205864778    4.04763772461589   -2.50488794880822
C          -7.32381225348966    1.94236386245763   -1.75571538251614
C          -7.54592759549170    0.55906338347333   -1.61692139633023
C          -8.74929320515490   -0.00834299963620   -2.12593202471813
C          -8.99440432002744   -1.39588376954551   -1.99777840267511
C          -8.06559247611745   -2.18812612321527   -1.37786471539291
C          -6.86577075408021   -1.61237719206424   -0.87488221066583
C          -6.59885672924951   -0.27962571546998   -0.98663971981598
C          -6.03056352918382   -2.67547534169102   -0.28604038338722
O          -4.88853203549145   -2.55200069155149    0.12803754073063
C          -6.80093066574848   -3.91595669959854   -0.41233252561604
C          -8.04121480211169   -3.62325194853052   -1.09771753053423
C          -9.05451236152887   -4.50222639254921   -1.38686740009062
C         -10.24979571405199   -4.14102453635323   -2.04205984605455
N         -11.24209625309646   -3.91541898030029   -2.57392390164913
C          -9.06458511801452   -5.87455251751533   -1.06285034660059
N          -9.15421658841165   -6.99420954959624   -0.82154826312881
C          -6.34954114309455   -5.17116642448720   -0.06638118327452
C          -5.28281698972568   -5.51003823862940    0.77051582505594
S          -4.68133946626013   -7.16056036177985    0.68225654531238
C          -3.49598596953507   -6.92030127516484    1.92997833897930
C          -3.61397492421468   -5.62535246829011    2.45721830787778
C          -4.59746711613663   -4.84370893161441    1.78786042390933
S          -4.79653790626755   -3.29181786951889    2.49712693606368
C          -3.59512214041180   -3.68740628969471    3.69893406782914
C          -3.24801042942149   -2.71662449636999    4.73916063608067
O          -2.42954682713457   -2.91415295411822    5.60455702520975
O          -3.95396537583114   -1.59038599808325    4.59408615086857
C          -3.73936984585062   -0.55828587946494    5.55619037680160
C          -4.59400395033514   -0.77332017309297    6.79688040213532
C          -3.04873966338181   -4.92941467476561    3.54880315075309
C          -2.60797379212313   -7.97351433058561    2.22511422705056
C          -1.47253972473342   -7.85625217527909    2.96994434390455
C          -0.55286532764874   -8.89542191256826    3.26212268477072
C          -0.73826584759735  -10.23408522643409    2.97480372142072
C           0.18169300738140  -11.23683985380200    3.24206608815202
C           1.47962200771169  -10.94390539825884    3.85517559814942
C           1.87305081664006   -9.71042804590339    4.24569492195478
S           0.90743572947099   -8.30990006394664    4.05756138800698
C           2.14776438333843  -12.19427138391203    3.93587483835836
C           1.33590339472409  -13.21095871000587    3.42047785315386
C           1.97454161289274  -14.47045648539548    3.49861872615363
C           3.21243199398472  -14.37532471680815    4.04994583196542
S           3.66298300460907  -12.76745151003201    4.50136077904519
C           0.09135163398254  -12.62984512839558    2.98648116523880
C          -1.03739955637641  -13.26697128632581    2.44243880816619
C          -1.15796526783450  -14.59242763088336    2.14345127224175
C          -2.33490955279912  -15.18202666466868    1.65293750327792
S          -3.82619138812080  -14.31064473075991    1.38515623372344
C          -4.68649906230300  -15.72753729006021    0.82375752219880
C          -3.84209549753347  -16.84637521885884    0.88265897707335
C          -2.53911413968684  -16.51889721828352    1.33635326339649
S          -1.50395437624864  -17.90294750040330    1.45087434250198
C          -2.83239817348130  -18.92065629334122    0.95184347431298
C          -2.64656297585395  -20.36895335591826    0.82961240847552
O          -3.51899097548032  -21.13424570566433    0.50125565795054
O          -1.38629088639461  -20.71657531790638    1.11392187827584
C          -1.06593419547256  -22.10582405712818    1.03965271969351
C          -1.45723526562539  -22.83556237640218    2.31629219127270
C          -3.98595197832075  -18.24218919572809    0.69791549095188
C          -6.04338306229341  -15.60462180713463    0.47630995803699
C          -6.76661227737217  -16.48179561612014   -0.28393007799099
C          -6.21766231168310  -17.44967564731095   -1.14703766780919
C          -6.87583514811094  -18.49258678447244   -1.74107195876730
C          -6.34134660619268  -19.12827536597819   -2.96847772594991
O          -5.24641022271456  -18.95959606314367   -3.45718640973706
C          -7.45063637131856  -19.95834580737391   -3.48771074037441
C          -7.51590233823641  -20.67967897151570   -4.64390303191805
C          -8.70382537291422  -21.38196510121955   -4.95047555056034
C          -9.80592691801347  -21.31926572962431   -4.04950992905105
C         -10.98915530808613  -22.01675599039775   -4.36423836652403
C         -11.07351758629670  -22.74487843459944   -5.51772612464201
C          -9.98280669746527  -22.80756380758923   -6.40712890587471
C          -8.82208091684387  -22.14088007996073   -6.13081362403558
F         -10.09341600819875  -23.52898182208630   -7.53199231034862
F         -12.19955467583233  -23.40851691527945   -5.81471592695847
C          -9.70659922285239  -20.57000756482215   -2.85430412210308
C          -8.54422144157810  -19.90346123305577   -2.57603013839273
C          -8.14461054829466  -19.09731179288335   -1.42474405281051
C          -8.75621520020234  -19.09585923176965   -0.19491848961522
C          -8.15416573896204  -18.56983231080507    0.96594400346425
N          -7.66817529557679  -18.20968944664412    1.94209930094413
C          -9.98855511435571  -19.72496719161873    0.06935390287131
N         -11.00280397090785  -20.19821592870336    0.32559340523043
H         -10.60486409495485    0.41838212900502   -3.14958637783828
H          -6.41690532127949    2.38606813801453   -1.37572094108727
H          -9.91234111626570   -1.79418281432150   -2.39854163777206
H          -5.67896745742405    0.13013742415391   -0.59818900242140
H          -6.86033856856010   -6.02133941252330   -0.50105532672174
H          -4.01131680876234    0.36704267833708    5.04459198524983
H          -2.67804323731632   -0.54115263910603    5.82500805825991
H          -5.64478159903117   -0.83459754577116    6.52401079293011
H          -4.45253049320867    0.05563695530712    7.48412264539009
H          -4.30258033008175   -1.69572238392910    7.29344014282078
H          -2.30490778043813   -5.30655734602696    4.22515280016877
H          -2.85238608874392   -8.91899967661451    1.76141297794048
H          -1.20041207071025   -6.88033692097931    3.34404896436862
H          -1.67418087588393  -10.50837226457445    2.51042028121152
H           2.82983471746047   -9.52478900073110    4.70753641129880
H           1.56162880878330  -15.40757138163835    3.17459090761440
H           3.91148711651423  -15.16915385803266    4.22706161451647
H          -1.90197724622022  -12.64213447468648    2.25390639932661
H          -0.32918654737302  -15.26993987741593    2.27914762753593
H           0.01377175787925  -22.13734278598960    0.88001205821870
H          -1.58573578282592  -22.54101948457695    0.17971313708199
H          -0.97815457831610  -22.37381045430375    3.17655709722682
H          -1.14622929542144  -23.87408858011878    2.25052901106865
H          -2.53592827859249  -22.79909991124064    2.44906344882132
H          -4.89247672333803  -18.74354375266924    0.41631507677688
H          -6.55335746006258  -14.74092205131124    0.88284765663380
H          -7.84208909628722  -16.35990287857789   -0.29459424262558
H          -5.19818233188433  -17.29290803021175   -1.48449151534607
H          -6.67291804374680  -20.71549317606930   -5.31707523809784
H         -11.83250476750769  -21.98158435379787   -3.69235921320478
H          -7.99613314755564  -22.19898504823258   -6.82231436971445
H         -10.55643296054557  -20.53589397919203   -2.19117664240510
