128
 SCF done       -233.740216984022          0.000830987688
C          -8.16657795711298   -8.20725713340299   11.01299918430826
C          -7.61224867041274   -8.93526067010802   12.02606530581850
F          -8.26411147719426   -9.06251502289296   13.19808743952363
C          -6.37882630235069   -9.59199555148344   11.85413386564609
F          -5.86021651951855  -10.28234101483008   12.87973872655010
C          -5.73375859649886   -9.55036729617137   10.64995245866161
C          -6.30558720509966   -8.85572179802318    9.56598651858149
C          -7.53048629110960   -8.15204424099319    9.75574432125764
C          -8.12352034983688   -7.44761773744784    8.68355042417114
C          -7.53448101152603   -7.48890243165815    7.44767986248195
C          -6.32154661772161   -8.21026537492286    7.26201941167083
C          -5.70428757179195   -8.86719614857048    8.28728364758779
C          -5.89241670048561   -8.08336878704809    5.85551070618704
O          -4.92836536059481   -8.61351597376544    5.34054006321407
C          -6.88329224299186   -7.20252742813893    5.21171313561690
C          -7.94843847475135   -6.93365676362023    6.16380391519918
C          -9.14024448361470   -6.30598952635465    5.91753762896821
C         -10.04036591020016   -5.89455010579111    6.92643209440400
N         -10.75651483190610   -5.44953834889492    7.70452168046736
C          -9.62586577692465   -5.98807899295491    4.63263794309012
N         -10.08927604220695   -5.75430128131045    3.60723171026407
C          -6.78378443981144   -6.62483322478900    3.97803166757985
C          -5.72412193248177   -6.62305789275559    3.04590938410164
C          -5.83510910826895   -5.98208971808663    1.80950127959068
C          -4.61843967828175   -5.96278929138906    1.07588998754027
C          -3.59943589349490   -6.66682561568043    1.77885040049410
S          -4.14438632267068   -7.30656918587018    3.30494834161814
C          -2.32406126155435   -6.87923038435412    1.28366878574661
C          -1.32767793466448   -7.68661705370238    2.05998627995610
C          -1.49738493973626   -9.17889235613977    1.76455300779028
C          -2.05097459879819   -6.35936281248509    0.01700568957672
C          -3.05523455695212   -5.63137314859032   -0.67217598822299
C          -4.32840115041212   -5.40463641886197   -0.18539351270108
C          -5.29764059086440   -4.60437429575242   -1.00113517643885
C          -6.12384995074451   -5.49054911200648   -1.93522287829670
S          -2.46719765910361   -5.06758292799545   -2.21935070513301
C          -0.93187068736760   -5.80370751960950   -1.93093797021715
C          -0.84694380962105   -6.43765200291050   -0.74327254561650
C          -7.17568767936152   -5.68713494716229    1.30494993242303
C          -8.04642516507503   -6.68984442444206    0.96138734489941
C          -9.32990110071819   -6.20928478844895    0.54624230613799
C          -9.40306320543140   -4.79997015846490    0.66679563111772
S          -7.90383054426451   -4.11244744003716    1.24394033916628
C         -10.52260358190476   -4.05169288990172    0.35845192626165
C         -10.52115841159381   -2.55826662558147    0.48091530158460
C         -10.13626200920709   -1.90721718731643   -0.84924714708552
C         -11.62401164917348   -4.76294726079407   -0.12506634482037
C         -11.54317473265493   -6.16759924351797   -0.27870355695607
C         -10.42463060871357   -6.91950461419611    0.04238675848983
C         -10.39623015720064   -8.39293891100759   -0.23499312950003
C          -9.72311863154134   -8.66990927188287   -1.58111502726393
S         -13.02935472245186   -6.81182142072399   -0.92987765715912
C         -13.72472173648555   -5.22993619888852   -0.97623474780446
C         -12.89644187590481   -4.26253420500085   -0.53554848967620
C          -7.58279271981427   -8.06546406322585    1.16825949564409
C          -7.98737895845551   -8.79344115273072    2.24974083329412
C          -7.31796865799103   -9.93074431783856    2.71899252351730
C          -6.05478765773085  -10.35721811168684    2.12803900739785
C          -5.53287982090996   -9.83857390873821    0.99171890708667
S          -6.26125034421666   -8.54929444481784    0.13618969133160
C          -5.56241216451417  -11.37662085742872    2.98764016274223
C          -6.44917786245416  -11.59005834191619    4.04381220890723
C          -6.02627800043347  -12.66268042497395    4.86128467743096
C          -4.84598119262796  -13.18632644855007    4.43450618343551
S          -4.20669925050878  -12.42643026829277    3.02323854800971
C          -7.56913100304569  -10.68257123420017    3.88843961272411
C          -8.75689838162471  -10.56086582262093    4.63121928006945
C          -9.00774408284351  -10.84497478728945    5.95430647433609
C          -8.02777804545132  -11.07822694784726    6.91533750498607
C          -8.17356954217420  -11.21970381859646    8.28092413518676
C          -7.07606717922642  -11.86692150242646    9.02265996673667
O          -5.97545946956885  -12.15576908028333    8.59998380545628
C          -7.60359371484847  -12.10753848678596   10.38527562181388
C          -8.87603091700377  -11.51748357496889   10.49139540975897
C          -9.55709829273112  -11.57864092558012   11.69628886888072
C          -8.96835816301581  -12.23892790696791   12.77360389771067
C          -7.71348333427685  -12.84949467644009   12.64524677677139
C          -7.01532431176447  -12.77549554831206   11.43552489107290
C          -7.10974076080711  -13.51213412170315   13.74269358608351
N          -6.56292357280955  -14.04349780245841   14.59663056996971
C          -9.71778697658300  -12.36293245228056   14.07232597727374
O          -9.87434023348068  -13.41561383964991   14.61976461979006
O         -10.22324411715180  -11.22604233013513   14.55924290750847
C          -9.21761100402418  -10.89035223904297    9.20753388314855
C         -10.23879292491979   -9.97966646332212    9.04780162054520
C         -10.47798588793332   -9.20799895925935    7.89752035853091
N         -10.72016961590307   -8.52090474070527    7.00782652077159
C         -11.10612754340765   -9.59255328866601   10.08812446345606
N         -11.81696173890262   -9.22367015444844   10.91167610825005
H          -9.10634236244753   -7.69973842325871   11.16902046434683
H          -4.80033168636235  -10.07565896280984   10.52292252721001
H          -9.03433322673249   -6.89965824957507    8.86411145130227
H          -4.78650530289282   -9.41050878268716    8.12323944265208
H          -7.61684795924783   -6.00355260656004    3.67084190688515
H          -1.48317377283599   -7.51686787999919    3.12744627195646
H          -0.31389212794406   -7.37457499682856    1.80807198252369
H          -2.48143612586028   -9.51567315583553    2.08269365625600
H          -0.74931137922304   -9.75541353578403    2.30197098629677
H          -1.38686064412920   -9.37199330895518    0.69930890127735
H          -4.73058891320277   -3.89460138680418   -1.60843006625427
H          -5.95724697469496   -4.03446645723462   -0.34979592420446
H          -6.72297871983407   -6.19941611254847   -1.36936730962398
H          -5.47047184588294   -6.04729541972843   -2.60251539022316
H          -6.79069681096986   -4.87656378663101   -2.53496178565217
H          -0.17331154741678   -5.71519794910670   -2.68441411993170
H           0.03782150053623   -6.94898796073578   -0.41079646437831
H          -9.80261293944509   -2.26181023236622    1.24882779469908
H         -11.50756166827687   -2.20991377599001    0.78904369726959
H          -9.14105365917126   -2.22592630450848   -1.15173533046039
H         -10.13805837535344   -0.82438927778958   -0.75364405274224
H         -10.83957610251470   -2.18970008936772   -1.62948129569878
H         -11.42161802632762   -8.76674175789261   -0.26593530066402
H          -9.86619044417789   -8.92419804279724    0.55468283979195
H         -10.26709230640199   -8.17491087692003   -2.38189779563923
H          -9.70822504499644   -9.73828222650335   -1.78179874996550
H          -8.69896073672320   -8.30163581508450   -1.58432139861107
H         -14.72844925501862   -5.12442736151442   -1.33976413485789
H         -13.16995666768025   -3.22385748380657   -0.49857230986719
H          -8.82693550256762   -8.40672211063661    2.81317083661101
H          -4.61765993265662  -10.19875689123913    0.55019793524815
H          -6.55270074967452  -13.05726584718184    5.71028993767901
H          -4.29686522204944  -13.99491999294490    4.87535747119655
H          -9.59785667799080  -10.15917385689106    4.07641539815132
H         -10.03896603685596  -10.80766445761460    6.26920436102607
H          -7.00604636122298  -11.19157850413145    6.57534954382371
H         -10.54151034087497  -11.15220651978667   11.81269677530027
H          -6.03824639597737  -13.22205438322790   11.33211135076348
H          -9.96382350113895  -10.43359797951819   14.06670730952855
