89
 SCF done       -172.858248050524          0.000724385664
C          -0.35698511503144   -2.03648583479106    1.32939915932026
C          -1.20070160820812   -1.81338101152585    0.28406575593590
C          -1.40307498897974   -0.43587088110000    0.07439735399586
C          -0.69196646381879    0.35321750816167    0.98535029467552
S           0.21367628255679   -0.58571399421792    2.08586242550417
C          -0.95299501412892    1.72480648473790    0.69991263010049
C          -1.82959580981966    1.79154851654385   -0.39095501027603
C          -2.14271015486024    0.43535467320445   -0.82182796477550
C          -2.95849528008313    0.06832922060840   -1.85161548377719
C          -3.62874983674757    1.01136379663970   -2.65946383870705
N          -4.18274308911548    1.76555534506217   -3.32186097103967
C          -3.18849631026406   -1.28396473314916   -2.18126632179431
N          -3.37835391042673   -2.38152584432997   -2.45382150040466
C          -2.14810411599231    3.10145728317254   -0.75425474061043
C          -1.52001822023153    4.02932503209270    0.05153348171085
S          -0.51857511646656    3.26808665616795    1.28086397244979
C          -1.61000887697530    5.45370417118524   -0.03688178600706
C          -0.92396433783079    6.31405879764129    0.81542573061043
N          -0.93668745573372    7.63880291899781    0.77330407739355
C          -1.65902541956147    8.28260121551861   -0.13178972059717
C          -2.43676244747280    7.53350482565182   -1.05735006295064
C          -2.40799762860427    6.10079507469873   -1.01729204406617
N          -3.18200134088574    5.56866969135476   -1.96258514560236
S          -3.86976057591000    6.74929989897436   -2.80676740513477
N          -3.22750774350131    7.99518016500561   -2.02086898230915
C          -1.63336375840202    9.70991992075931   -0.18674542303175
S          -2.54049875134030   10.55145975124995   -1.39909678797786
C          -1.97480901587174   12.07901911335504   -0.80357220234565
C          -1.10085932816066   11.92869715275494    0.25804204448044
C          -0.91961596133926   10.58263267076146    0.61948142242964
C          -0.04386582181267   10.15063116183876    1.74853612736195
C           0.33880550132938   11.34661794928945    2.63165911169352
C          -0.80784767318323   11.77060599601358    3.40196680289558
N          -1.72541762864200   12.11853521363586    3.98782832119149
C           0.81444161688097   12.52481051929986    1.75155423729055
C           1.88966842339449   12.08711285612890    0.89102559949969
N           2.73755538106189   11.74642855808161    0.20521930205979
C          -0.35862012447361   13.05262296653437    0.91225921615248
C          -2.40454118560167   13.29495405838816   -1.45258559913863
C          -2.76890470041343   14.46833047325819   -0.81054749602340
O          -2.84329056176633   14.55891059975985    0.55753395055314
C          -3.79283739164793   13.71444115160073    1.19047537516279
C          -3.11840474929569   15.65609444857935   -1.52764292533709
O          -3.53548595081262   16.74758709403691   -0.81845389334373
C          -2.58574839381193   17.38974573291770    0.01616790613065
C          -3.15446033101008   15.73553886019561   -2.91736246561984
C          -2.89062850076764   14.51180588996848   -3.58885082478755
C          -2.52771083320351   13.32016375412768   -2.86364726748156
N          -2.35861543774524   12.35598821161842   -3.74450138783710
O          -2.61374195276037   12.89028336311106   -4.93389781671522
N          -2.93645944721538   14.18095535895645   -4.86505992947478
C          -3.52623675289748   16.95436693946679   -3.59233753151563
S          -4.53205558279245   18.09422121151860   -2.74140485783025
C          -4.62413734426142   19.14381024729757   -4.11499468553133
C          -3.85695934073315   18.65782892941917   -5.15150931433926
C          -3.23496349724011   17.42023820899408   -4.85956216681278
C          -2.26965314678341   16.86380422823625   -5.85901539665278
C          -1.10119536704924   17.82281787318226   -6.01558117357024
S          -1.70791021730993   19.48912136920390   -6.47917931744531
O          -1.29074663004393   20.41768711608465   -5.46419650996413
O          -1.32056624128893   19.76950954261587   -7.83558540010435
C          -3.53799682634837   19.35377218072637   -6.41443635976971
C          -5.42821075508190   20.33787988095503   -4.02008036960640
C          -6.07910212505449   20.91983730490196   -5.02282878281431
H          -0.02401419818707   -2.97904605896924    1.71532221721726
H          -1.64874481220896   -2.59673471737194   -0.29935323467113
H          -2.79879137391472    3.39166023849380   -1.55866250134464
H          -0.29912360026012    5.90034439676639    1.59749175368068
H           0.86125407790312    9.68678291431039    1.34570967913942
H          -0.55542352019714    9.38349755967648    2.33330598641913
H           1.13194052928906   11.05195765473259    3.32886037381141
H           1.20064551750732   13.33360755941705    2.38460378037974
H           0.00430421863505   13.74661254558954    0.14824102673976
H          -1.02950455545967   13.61609221150049    1.56673582109439
H          -3.64165693510090   13.84562017415637    2.26014332234046
H          -3.64782578090862   12.66426230438955    0.93012407945346
H          -4.80795700774277   14.01933356180101    0.92100050829969
H          -3.12807467860807   18.19679583004772    0.50348623212347
H          -1.76921646804184   17.80685034094191   -0.58193884770517
H          -2.18295494643541   16.70648903253451    0.76488245107046
H          -2.77288048569481   16.74449359572985   -6.82163299976016
H          -1.90947728337780   15.88238645313893   -5.55965160249517
H          -0.42535975509709   17.51851344788976   -6.80894213178150
H          -0.55916769144126   17.95736409107635   -5.08386419653888
H          -3.83176378705783   18.80916188096738   -7.30842546670979
H          -3.90944236374809   20.37286943795529   -6.44380523604622
H          -5.52427022660827   20.73603413244718   -3.01797313682054
H          -6.07595445597471   20.52283516622916   -6.02307360944422
H          -6.66868543586350   21.80519941090791   -4.86085170408995
