116
 SCF done       -225.888836871972          0.000849504872
C         -10.08541705617245   -1.94586439130519    4.67867474041956
C         -11.06271423651107   -2.53836189620309    5.42749415796156
F         -11.77947439628222   -1.81319941030622    6.29394213548858
C         -11.32769259410341   -3.91757008700684    5.30148680976140
F         -12.29087416848909   -4.46877366222296    6.04922762129525
C         -10.60800187038068   -4.68680292947134    4.43105217872154
C          -9.59297473403015   -4.10550180899605    3.64700603826932
C          -9.32920701466064   -2.70953020523965    3.76764889175523
C          -8.33635625939093   -2.09913364609006    2.96956243148889
C          -7.64629877369218   -2.85763045925346    2.06077586583438
C          -7.91783429373478   -4.25042316199182    1.94420232760101
C          -8.84990041224936   -4.87330519717185    2.72470087063786
C          -7.11973589023475   -4.80835442447510    0.83917505509308
O          -6.91472074579641   -5.97649848137873    0.59115215956021
C          -6.52633585297902   -3.62151304332560    0.15280194011090
C          -6.65125963127453   -2.48875217732596    1.05928732471783
C          -5.97503162330166   -1.30242983546657    0.99666879339621
C          -4.98855608115137   -0.99557146549824    0.03496757963792
N          -4.17942139743986   -0.69690388624420   -0.72222978846647
C          -6.14415029151533   -0.25515338942961    1.92845513256000
N          -6.23201998974666    0.62084389290378    2.66392709593514
C          -6.04377031464820   -3.60342704461090   -1.11841114353224
C          -6.23915858515815   -4.62581756196900   -2.09160663498292
C          -5.33514001116115   -5.01290269914362   -3.04136474814537
C          -5.85522692879969   -6.17318045919036   -3.71958325490505
C          -5.22656869323582   -6.85414703109509   -4.77061258391424
N          -4.71805384315942   -7.43603125855766   -5.61922695833593
C          -7.06746797345900   -6.51549964907085   -3.16535796524492
C          -7.39514126058030   -5.55087521693578   -2.16949322408542
C          -8.58072902117351   -5.40065614882982   -1.48707011740530
C          -9.48221012864572   -6.47227926480953   -1.00007828939227
C         -10.43585392804186   -5.87558821204087   -0.20600853824464
C         -10.20960943796113   -4.45960282672252   -0.20635480424942
C          -9.09065881896401   -4.17513937001211   -0.96103083101326
C         -10.94550186004309   -3.52539016270348    0.53538525082199
N         -11.49203998926086   -2.75861246658152    1.19176486712525
C          -9.28789957009237   -7.85427314015378   -1.21620246534949
C         -10.04393513109479   -8.82534666675361   -0.62599209333367
C          -9.97129031289799  -10.21033806244937   -0.90630690743438
C         -10.25773133147897  -11.18469812560993    0.01881073221182
C          -9.85928769405565  -12.45404825746483   -0.51225655965891
C         -10.07404746523654  -13.68997547275983    0.11030391178343
N         -10.33214571842492  -14.70715097911186    0.57673028534341
C          -9.33248078737770  -12.27684405953585   -1.77099928038612
C          -9.51781325936437  -10.90651449589426   -2.14403288424704
C          -9.53823573360747  -10.39715141625360   -3.42192551719705
C          -8.99612530357231  -11.01355123350322   -4.66067169609780
C          -8.79143577903684  -10.00231126014986   -5.55430203805386
C          -9.37047036215637   -8.78777873127905   -5.02490689550264
C          -9.86832212443509   -9.03858680661659   -3.77414161692457
C          -9.40779096213780   -7.55784729011280   -5.69714379655691
N          -9.40583366119823   -6.53819020072882   -6.22378484864802
C          -8.81064086297869  -12.39791817763554   -4.97840708120655
C          -9.63189036053833  -13.36008698608009   -4.50950817396576
C          -9.56877348763926  -14.76792468533727   -4.75529205044085
C         -10.17180700456410  -15.62661072647256   -3.86164699936222
C         -10.27181245487290  -17.00454573749376   -4.00561223232272
C          -9.60488812506155  -17.67632636980918   -5.12226583383435
C          -8.92674617870984  -17.02943471123764   -6.10192705779810
S          -8.76249309734083  -15.32909027371566   -6.19661571938867
C          -9.79713783680371  -19.06894932277472   -4.90483708936574
C         -10.51185254997855  -19.26283460138226   -3.72329946692781
C         -10.73216563108344  -20.63038835517508   -3.45285358157118
C         -10.18602108554739  -21.42088211126898   -4.41451631793082
S          -9.39286694054031  -20.54692520009680   -5.68007001987260
C         -10.84788375148612  -17.98198351542616   -3.14724185555963
C         -11.51497853755891  -17.86885314887197   -1.91531171379961
C         -12.19331287504758  -16.81014648037788   -1.34623351587720
C         -12.63482662501387  -15.68728954776326   -2.04208105444899
C         -13.08102461305650  -14.46458534300376   -1.57071122233151
C         -12.98661523883591  -13.32596403684183   -2.49458216947500
O         -12.70673189864552  -13.35006513650238   -3.67932507353004
C         -13.15860344478270  -12.11279836466914   -1.66246557472596
C         -13.39165753799089  -12.50287904135573   -0.33276412493227
C         -13.49433529500248  -11.53542491519680    0.65281016226941
C         -13.35706289869350  -10.19136870505648    0.30432848535010
C         -13.13011661802008   -9.81821455330357   -1.03037412869061
C         -13.04058159882283  -10.79177991745757   -2.02975713598108
C         -12.95666244142530   -8.46487849834492   -1.40968757576877
N         -12.79292431696381   -7.40369505429805   -1.81064142497295
C         -13.32919610811704   -9.12893490547988    1.35897441039941
O         -12.62523165549112   -8.15747868558781    1.25757667351043
O         -14.08973298338706   -9.31804107574599    2.43365097236629
C         -13.46564526678309  -13.96930118566314   -0.27720893552050
C         -14.01671880895968  -14.66255535407804    0.77360123049217
C         -14.33193338605986  -16.03495236039647    0.76102634611729
N         -14.66038348495867  -17.13421173564280    0.79617239699575
C         -14.45830998527085  -14.03436553849211    1.95367018494762
N         -14.83718729296848  -13.53398487962709    2.91602382831416
H          -9.90056776813999   -0.88826317363646    4.78246394429851
H         -10.82824155490219   -5.73885552538982    4.33998141973033
H          -8.16520470061798   -1.03990028033562    3.07562926226543
H          -9.04009590496631   -5.93047055219890    2.61589108772844
H          -5.48086563557761   -2.74130285303852   -1.45595552319634
H          -4.36739218163017   -4.58317281624498   -3.22136596547189
H          -7.72420294171650   -7.27006525803768   -3.55166851488369
H         -11.23020765319805   -6.35781974306832    0.33101202511032
H          -8.73072041175004   -3.19391644716448   -1.20574475205525
H          -8.47720835888767   -8.15184089581878   -1.86339784314761
H         -10.70269679768346   -8.54259527940328    0.18374044883409
H         -10.61333597701244  -11.02687113067757    1.01972757239272
H          -8.89316988997366  -13.04671645294629   -2.37066644915119
H          -8.36688293878898  -10.08962355527490   -6.53677112291966
H         -10.42236563301350   -8.34768464293884   -3.16923318706942
H          -8.03417233041858  -12.63646871637454   -5.69471525923231
H         -10.45958890824837  -13.06746237455994   -3.87718441276024
H         -10.57159706318991  -15.17329018829594   -2.96685904162090
H          -8.44236538688873  -17.55778690131982   -6.90803070926172
H         -11.26262717210359  -21.01444446568492   -2.60092937519411
H         -10.19734500652591  -22.49192656121247   -4.46723720349045
H         -11.45853733887909  -18.76564953543567   -1.30814505609026
H         -12.40373076403609  -16.88851564946708   -0.29121186727192
H         -12.56163505194366  -15.72200483283035   -3.12429841452432
H         -13.61433346918969  -11.81587840238610    1.68835435564620
H         -12.86647324614949  -10.51619228777292   -3.05903991071965
H         -14.62431032906580  -10.12497700371948    2.41264821329875
