97
 SCF done       -181.688016644125          0.000578926335
C           0.16121082693221    1.36734015197314    1.67799229841409
C           1.48436014370132    1.70711749079695    1.70800989661001
F           1.85123627182466    2.96381148353252    1.99890018699465
C           2.47801290500971    0.74643234573249    1.43510782949112
F           3.76916905966343    1.10854209457486    1.47097913489733
C           2.13467484956951   -0.54205167896990    1.13617908822671
C           0.77959157798304   -0.92350302499741    1.09756309035147
C          -0.22652209945139    0.04678533312596    1.37370068617549
C          -1.59334677749205   -0.31333929626304    1.34220042210127
C          -1.94178860931510   -1.60452133375596    1.04501152759785
C          -0.93101465880232   -2.56429687620545    0.76613764653501
C           0.39573534900093   -2.24748571815034    0.78821135387208
C          -1.55759006053456   -3.87107049191974    0.46705094973766
O          -0.96595585463865   -4.89512311845722    0.19955878242724
C          -3.01615737506198   -3.63071764126548    0.52129570687287
C          -3.24187000838501   -2.26119244432123    0.93767109150964
C          -4.44832953524633   -1.68360477779862    1.24521342145995
C          -5.69835172052369   -2.33632418639688    1.22029539941735
N          -6.75094587359475   -2.79667628227997    1.24404045142891
C          -4.59555775073687   -0.34781290887724    1.67152172022625
N          -4.77932921888787    0.72974717175089    2.02335459890655
C          -3.99758319187553   -4.47610078970330    0.07524672686503
C          -3.91073244090369   -5.83894916013133   -0.27982372022095
C          -3.05065087910226   -6.80886603956595    0.20025210438441
C          -3.48243100355065   -8.07848421658794   -0.28906129998770
C          -2.86187778605089   -9.30502777179888   -0.02592370353660
N          -2.38127361333152  -10.32406731688667    0.19846759527174
C          -4.62736419872188   -7.90567473967552   -1.04980846396832
C          -4.93536459559520   -6.52061579535282   -1.08542299785765
C          -5.92997454938099   -5.91011374788493   -1.83703844568597
C          -7.16997599930579   -6.56105656334419   -2.34909562375586
C          -7.77851542035307   -5.65857788689990   -3.19596456472687
C          -7.00165747884082   -4.46739793442349   -3.21656626814351
C          -5.90508961523852   -4.60946457374606   -2.37143485200209
C          -7.29949625490039   -3.33802563375338   -3.98891918315354
N          -7.54695756338711   -2.41921846952355   -4.63197418914687
C          -7.65067063693945   -7.80652473644859   -1.90695514858419
C          -8.69834587022729   -8.48312545844489   -2.47124136218959
C          -9.14324686541142   -9.74993782260828   -2.05601405575436
N         -10.15357172855536  -10.40797327320372   -2.73128379451308
C         -10.34962632411631  -11.62051176831096   -2.15331628872530
C         -11.07743014056380  -12.79546933856067   -2.22697075750718
C         -10.60896274927449  -13.61455016057407   -1.18252489758840
N          -9.62410184999406  -12.94513573237133   -0.48636259401917
C          -9.43670101246431  -11.72848550477491   -1.06207010066268
C          -8.68639416454877  -10.56918490075576   -1.00042465335774
C         -11.04122252554673  -14.92910798850936   -0.89860557108776
C         -10.59821372876855  -15.71001084229084    0.12197834009785
C         -10.99607757452907  -17.05591260846592    0.36979655145049
C         -10.49138876635572  -17.74788367233264    1.47023501693005
C         -10.80638541867061  -19.06610569919599    1.75304540057566
C         -11.65609575570775  -19.84189585352116    0.96532943076332
C         -12.20702415590088  -19.17676009834785   -0.16961738755785
C         -11.88331968535688  -17.79953901065910   -0.45854063228868
N         -12.49409396878215  -17.36930034200660   -1.55929723402283
S         -13.38182569951015  -18.55716333475849   -2.17878673064378
N         -13.03695225906702  -19.68112002503747   -1.08132880998386
C         -11.93171827501946  -21.21884666015510    1.27615220400956
C         -12.80045883048091  -21.99900380377320    0.55414194515038
C         -13.08271547347094  -23.34353840356172    0.79670613187308
C         -12.51465381912744  -24.03873801292151    1.96268012074244
C         -11.63216413317644  -23.47496794526785    2.81369713555969
S         -11.05125353009699  -21.87067396772282    2.66407470052042
C         -13.09071814957994  -25.33655060859097    1.94843563969196
C         -13.94899459795962  -25.45002647711755    0.85040523703948
C         -14.54842746959578  -26.72894979974967    0.77600666804182
C         -14.14349697474342  -27.52982106712767    1.79409373700502
S         -13.02047588230166  -26.77712651593930    2.88094522122248
C         -13.93831633874141  -24.22087252964618    0.11292907327144
C         -14.69187331267298  -24.03094216626431   -1.09612775951756
C         -14.44679127393950  -23.15475451185048   -2.07094289477981
H          -0.58707641887533    2.11499692186104    1.89013780127591
H           2.90697719000050   -1.26622075593811    0.92900035893042
H          -2.33042619122995    0.44551076684570    1.54908769607953
H           1.14185933653203   -2.99707969907521    0.57214754093078
H          -4.98624640272742   -4.04931063446308   -0.04199112760594
H          -2.22239991085697   -6.66302389946429    0.86473463208792
H          -5.11343363623424   -8.67686429125370   -1.61734096039362
H          -8.70558873040840   -5.78162904103611   -3.72256256963116
H          -5.11651685517591   -3.88979217613019   -2.26229990411488
H          -7.15188000634995   -8.25427944476119   -1.06112321831707
H          -9.20527395907684   -8.04906742527451   -3.32263109300969
H         -10.63956560486442  -10.03541893134789   -3.52886776230137
H         -11.84560699561208  -13.06595824682465   -2.92272584344037
H          -9.11596631738020  -13.31890215340022    0.29549944334985
H          -7.91178814920019  -10.31982241371798   -0.30440268571969
H         -11.78009724185353  -15.33590863057355   -1.57244435143554
H          -9.87608094241556  -15.31808820576807    0.82828085000661
H          -9.81677525896676  -17.22967418936726    2.13635524958936
H         -10.36358001401086  -19.51277205633802    2.63057138030194
H         -13.31505320766657  -21.50773461037649   -0.25675674060508
H         -11.21541061124261  -24.00392976828509    3.65660239898981
H         -15.23953806387692  -27.04248353296922    0.01469959346296
H         -14.43398085395436  -28.54370895591424    1.98909104881736
H         -15.51938304763975  -24.72136969374292   -1.21324565590306
H         -13.60789665292523  -22.48245996615323   -2.05599335370598
H         -15.07984936267459  -23.10639397804501   -2.94050300640450
