98
 SCF done       -196.692393416864          0.000965717275
C          -0.31738885905707   -3.10713644686183    4.55382172062757
C           0.55950683477470   -3.81023024684593    5.33208600204210
F           1.49583803741987   -3.16641438950474    6.03884752628203
C           0.48482776982153   -5.21491145309099    5.40850673569589
F           1.36391950987137   -5.87550750850166    6.17338145218606
C          -0.46984348967387   -5.90040358646620    4.71049238446327
C          -1.38218874772116   -5.20210170581500    3.89648165280011
C          -1.30709651738178   -3.78178494586599    3.81320119565526
C          -2.21903520314934   -3.06335622393032    3.00251710202774
C          -3.15917902067117   -3.74428778650674    2.27588021775221
C          -3.20207037816801   -5.16523561636729    2.34061125268184
C          -2.36214436823042   -5.88483692160687    3.14122633137094
C          -4.24931939301317   -5.64939825103782    1.42995717510824
O          -4.46788980641929   -6.82251155913734    1.15145507012150
C          -4.91221967475859   -4.46914485208641    0.89121860697095
C          -4.22549565704047   -3.29342023992076    1.37954647371014
C          -4.49463785380443   -1.98146333135845    1.07593909699436
C          -5.51272384598483   -1.52117069008966    0.21650369765540
N          -6.30946462755858   -1.05561316042407   -0.46875194535070
C          -3.76461881083991   -0.89033647822254    1.59032443641419
N          -3.21163933572359    0.04153283129533    1.97140784450125
C          -6.03163947883270   -4.48019892338476    0.08148847352735
C          -6.78210671824215   -5.54975937949527   -0.39872981335784
C          -7.97674289739166   -5.37295750618230   -1.13987211674403
C          -8.59749883174888   -6.56728017619494   -1.48132893898041
S         -10.07302833073355   -6.78738340688695   -2.40833611193232
C         -10.28182910235105   -5.12772782122406   -3.12628012409611
C         -10.22418463608085   -4.05826218911045   -2.06038187422528
S          -8.51443775807346   -3.74759812792326   -1.51265422000230
C          -7.90486516336389   -7.69886018202080   -1.00632988642882
S          -6.45204006842373   -7.24958470993429   -0.15967574207608
C          -8.33711117904533   -9.01998118741403   -1.13699795513217
C          -7.65744606628451  -10.14310510672305   -0.71321474946608
C          -8.14315015835548  -11.47361526013261   -0.71538086887776
C          -7.27797815542897  -12.38868715749067   -0.18794751624087
C          -6.05313710632150  -11.82855047291371    0.22615138151826
S          -6.04127482870632  -10.09962692708399   -0.05913751348092
C          -4.93878283802212  -12.41711749120012    0.80081748958656
C          -4.74775329046992  -13.69735409217756    1.35913529224764
C          -3.52009391883223  -13.85836030062376    1.93139296816491
C          -2.66834344133473  -12.72343932523239    1.84567650198318
S          -3.50204027613580  -11.44562369549014    0.99938866202407
C          -1.35815911219690  -12.69999621720182    2.27170599918276
C          -0.37439268659569  -11.70655667410495    2.12879284715669
C          -0.43881261846492  -10.34696273207776    1.82148759827301
C           0.80728887180631   -9.77278146901622    1.51186273638036
S           1.05194177561095   -8.25482139286585    0.68756820571020
C          -0.57989204014240   -7.42131237894068    0.65988655047096
C          -1.75744349566102   -8.35548492515334    0.58047045676265
S          -1.86674873537702   -9.37135215967635    2.09050280175140
C           1.88741853673533  -10.64183521465378    1.72749398994953
S           1.29660829614490  -12.22516741889596    2.18439316669913
C           3.27458943595229  -10.47189999770049    1.63917320527259
C           4.07942784443990   -9.35732422504012    1.62089352008325
C           5.46308068142118   -9.51565610468606    1.09469939960594
O           6.02892308301180  -10.55496236101745    0.84249111219806
C           5.96924924573125   -8.14009795950139    0.90335130718518
C           7.14354602354801   -7.72294878702883    0.34944213157054
C           7.39735567085988   -6.33569899340391    0.24178860320619
C           6.42790950532474   -5.40827979818018    0.72110334856542
C           6.68401584213061   -4.02790503304373    0.60373341346430
C           7.84756470974198   -3.58838126101669    0.03667963980597
C           8.80553696444361   -4.50603133528227   -0.43604032283323
C           8.58690789453900   -5.85178103548491   -0.33506855325113
F           9.93760271111954   -4.04764637339096   -0.98995608272574
F           8.08712063549673   -2.27435337325029   -0.07657243072901
C           5.22604634943097   -5.87257487360348    1.30534008681972
C           4.99972164820466   -7.21902888397937    1.39046605544581
C           3.87967128958898   -7.97627700106392    1.94353893081474
C           2.89692801834874   -7.45039460159441    2.75365057951885
C           2.02657235526371   -8.23234259865562    3.53344778152098
N           1.29530161058375   -8.82886171710058    4.18837080432154
C           2.65289516043018   -6.07705699382002    2.92975538397028
N           2.32447417981172   -4.98355825125913    3.06253201816549
H          -0.24245594142849   -2.03217184745557    4.50371642736108
H          -0.50818323565109   -6.97750472611173    4.77548733249340
H          -2.14563975085570   -1.98833675817567    2.97937687974395
H          -2.44708136894022   -6.95977966697120    3.20759403138107
H          -6.42287601696404   -3.51255497633130   -0.21091703774874
H         -11.26163468130560   -5.15351566602761   -3.60315856784891
H          -9.51254213599963   -4.97654478904107   -3.88404826165794
H         -10.82587853673234   -4.32879805416365   -1.19219832406513
H         -10.56187925246020   -3.09814374516059   -2.45059500021383
H          -9.30924707566243   -9.17170802308143   -1.58972824384575
H          -9.12420660039546  -11.70920074225396   -1.08861881332679
H          -7.48343072532988  -13.44072840353202   -0.10108733963690
H          -5.52059940471992  -14.44509336967386    1.35746317436150
H          -3.19467865347114  -14.75937481389884    2.42098024422354
H          -0.98988440440713  -13.63705674659227    2.67237555456017
H          -0.52365794046572   -6.78133738156814   -0.22196322885553
H          -0.63134125294863   -6.79591249671959    1.55219474962355
H          -1.69945603626379   -9.02994652732055   -0.27311147299788
H          -2.69596064998776   -7.80157141035437    0.54485787664462
H           3.83157783034836  -11.39997704024237    1.53165613999985
H           7.86948998437928   -8.43841520271964   -0.00569277151346
H           5.96163295694853   -3.31140532121972    0.96249891928019
H           9.33058514041676   -6.54163111926984   -0.70217229404804
H           4.50888578231135   -5.14932302836759    1.66006837144688
