118
 SCF done       -229.135892944891          0.000746183108
C          -6.20643609383488   -1.32471150592765    3.36193098857224
C          -6.43527203102544   -1.65116922018747    4.66936635962862
F          -6.08205790735818   -0.80771995992259    5.64585137725679
C          -7.04533305095476   -2.87673528652451    5.00612729950752
F          -7.25864655675928   -3.17123033910763    6.29463584745315
C          -7.41800454946689   -3.75859756669224    4.03067505211381
C          -7.19516642926726   -3.45130513837198    2.67437351535627
C          -6.57956413363250   -2.21205645986020    2.33272389361046
C          -6.34671504675960   -1.88214073222617    0.97823421832303
C          -6.71799616310259   -2.76407849892342   -0.00173106856158
C          -7.32702506971441   -4.00271493098322    0.34680402571289
C          -7.56378028569629   -4.34761411272020    1.64691679254710
C          -7.59917301270914   -4.78073698904882   -0.87519157737092
O          -8.03315557925671   -5.91558372433530   -0.92719174488569
C          -7.10566977158171   -3.94414932824432   -1.99480119662804
C          -6.61057397390767   -2.69369920865022   -1.45386480976548
C          -6.21214800604183   -1.60469473508423   -2.18225990266287
C          -6.24896800407701   -1.54044342300844   -3.59158603082972
N          -6.28840878322451   -1.42631939143893   -4.73307376220821
C          -5.75236738542176   -0.39854481267978   -1.61298677767835
N          -5.36050429610982    0.59823933310197   -1.20133681871829
C          -6.95451308258353   -4.40040288815036   -3.27209523160741
C          -7.58973372745294   -5.55754828596374   -3.79664573136717
C          -7.00176872701124   -6.50410975346101   -4.59966087084325
C          -7.92813900737754   -7.58662246962301   -4.77997807527081
C          -7.67847748243746   -8.74399230879353   -5.52843407893462
N          -7.47357517399400   -9.70376102562096   -6.12413241380009
C          -9.08962286011838   -7.30250806186137   -4.09356568749457
C          -8.94784869085331   -6.02036843353517   -3.48201858114489
C          -9.97234097904957   -5.26027245514822   -2.94606816020312
C         -11.26530882781140   -5.77319743195096   -2.43542283431139
C         -12.10994575489686   -4.69118754837925   -2.30422142619473
C         -11.38211053545690   -3.50986790633229   -2.63847355077285
C         -10.08453955161042   -3.85066320931239   -2.99146402982232
C         -11.90772935792564   -2.21108417126080   -2.59893207214999
N         -12.34488757996362   -1.15116101246014   -2.55084013643883
C         -11.52929111482656   -7.08650742056083   -2.00214260974636
C         -10.56584330833268   -7.97480444041150   -1.60977103932706
C         -10.79645740013195   -9.31441619255283   -1.23462024320510
C          -9.78144215125022  -10.08439345523604   -0.67268832424318
C          -9.90634643496266  -11.40761646243348   -0.30683190867676
C         -11.14481915225566  -12.14788630663191   -0.51588252555861
C         -12.27036037619962  -11.60875210705703   -1.03663757990420
S         -12.39131850379226   -9.97766034212024   -1.54607700565414
C         -10.87946996056964  -13.47220417887785   -0.06210681103704
C          -9.57029024869265  -13.56873611748894    0.42134009789647
C          -9.28217258239881  -14.88328760714597    0.85895280161731
C         -10.34609115851315  -15.71345228086934    0.70050261327398
S         -11.73950920534166  -14.94973885194952    0.02142666412723
C          -8.93715039444821  -12.27799723122552    0.29753289352039
C          -7.66341309321136  -11.87502358327418    0.69211983002389
C          -6.73962757976240  -12.68085981594265    1.32384176640524
C          -5.47378742055346  -12.27390574528413    1.75296877850970
C          -4.95897741937726  -10.98774063823082    1.84301923018124
C          -3.74174566855817  -11.04413926771584    2.56538723692166
C          -2.93502013846482   -9.93175763953920    2.84490100915533
N          -2.28956059305411   -9.01000010812709    3.07111121760571
C          -3.48295751004545  -12.35936193389540    2.95028931398063
C          -4.49933926296248  -13.17769818505258    2.42222704836878
C          -4.54756810250799  -14.56303421956602    2.41230452250445
C          -3.90143699261756  -15.48287493185976    3.36724493350493
C          -4.15318650411087  -16.76613851230782    2.93335859315201
C          -4.90863378162476  -16.69734256099365    1.71867390597597
C          -5.16686857057318  -15.37169695576167    1.42136479893837
C          -5.33627614566695  -17.79608734838532    0.96315806325629
N          -5.71015949644314  -18.68282231294571    0.33676542336649
C          -3.31797882457037  -15.10575374883572    4.60082041253395
C          -2.59679618160997  -15.94462412882081    5.39843968022636
C          -2.12734626059288  -15.55097443497150    6.66434195667297
C          -1.51813741807262  -16.31789602461541    7.61924917761285
C          -0.79868782708538  -15.64207139734837    8.72997773520409
O          -0.85981195778601  -14.46934874196123    9.02305045080906
C           0.03229635665452  -16.69070999071465    9.35483718920455
C           0.95437652460220  -16.57271701739976   10.35391892441254
C           1.66282430713413  -17.72088660253522   10.77375536190183
C           1.40638362262909  -18.97000934102764   10.13793807331031
C           2.12274694045408  -20.11034091027964   10.55343734814433
C           3.04641638519435  -20.01570673905422   11.55618276832431
C           3.29701973643762  -18.78033334025519   12.18638144090872
C           2.62074204385167  -17.65583775993213   11.80417291152950
F           4.20828933235687  -18.71723145876148   13.16685937149649
F           3.72508769298098  -21.10110206291118   11.95111710940589
C           0.44045154649009  -19.06174421086181    9.10940363340344
C          -0.24580378213409  -17.93948000362075    8.72975328974963
C          -1.31123410856920  -17.74166777813211    7.74537045610121
C          -2.08416287477419  -18.75021056026999    7.22730468384609
C          -3.27619709175441  -18.57351233843825    6.49608290869224
N          -4.27466375580335  -18.51314760422868    5.93172989831330
C          -1.83678197697613  -20.12090780940369    7.45291031383557
N          -1.67696382893700  -21.25022908423347    7.58277038485175
H          -5.73944987188302   -0.38255798079385    3.12094622237356
H          -7.88213856291640   -4.69258670407877    4.30630858764593
H          -5.87244025515821   -0.94145811420121    0.74939054662433
H          -8.02713546514327   -5.29201371170430    1.88975657451301
H          -6.26154700636992   -3.89483569042980   -3.93412822697967
H          -5.99882568737984   -6.48592952097334   -4.98420713112776
H          -9.99249010399102   -7.88138113707728   -4.12680410590690
H         -13.12233190577379   -4.70669064026767   -1.94634897942571
H          -9.34272865596602   -3.17014223904527   -3.36458177895550
H         -12.57367157176881   -7.36126726422248   -1.90203144831604
H          -9.54493982237774   -7.62615188339838   -1.53217831731641
H          -8.83756720787233   -9.57823835416049   -0.52317264846548
H         -13.17780718016058  -12.17510684825982   -1.17221218411232
H          -8.35090562307099  -15.23180372972084    1.26513077033963
H         -10.39916916065609  -16.75623507280084    0.94453964151344
H          -7.38896304968261  -10.85012309108530    0.48588110876260
H          -7.02039672458712  -13.69824921163675    1.53915744321723
H          -5.40705572398212  -10.08167790392497    1.48206981913815
H          -2.59223281385056  -12.69194069610000    3.44770756490568
H          -3.90350590880712  -17.67958127843473    3.43867811339344
H          -5.63493276904432  -15.01954283207061    0.52124678113914
H          -3.50583682485830  -14.09904139686071    4.95129731852530
H          -2.36660953570357  -16.93679822504334    5.04312253502279
H          -2.20195848731097  -14.49686216070835    6.91511135097590
H           1.14114552524437  -15.61620840534468   10.81785677900200
H           1.94027796532408  -21.06451196648955   10.08422605798496
H           2.82427518605197  -16.71760013366060   12.29610265081896
H           0.27489038180779  -20.01942097395189    8.64275397866669
