77
 SCF done       -152.836342626727          0.000813682248
C          -0.11970373960067    0.26416216654783   -6.79905127089120
C          -0.95537032762692    1.30501423879573   -7.06037460491889
C          -1.03818139420071    2.18603015258554   -5.96348204117847
C          -0.24437336388577    1.77382330336287   -4.88486503886375
S           0.59125347238795    0.32310720156261   -5.21599325282886
C          -0.38390211504867    2.71549982924015   -3.82763738166857
C          -1.27144630981266    3.71650555409664   -4.24428822183530
C          -1.70899891592876    3.41794043189314   -5.60494059360938
C          -2.56464827773715    4.15672616100286   -6.37012071242559
C          -3.15317885664059    5.35130013063115   -5.90643969021426
N          -3.63854367750112    6.32514701410906   -5.54309310558634
C          -2.91748439186766    3.77764962823758   -7.68169702038051
N          -3.20807954374280    3.47655759331927   -8.74970387272851
C          -1.48307621556030    4.69238505086984   -3.27515883720249
C          -0.76362427434198    4.44258955758264   -2.11579673574271
S           0.19362781155717    2.97862635000863   -2.23846376762607
C          -0.78309174149160    5.25725877466407   -0.95713076020774
C          -0.13847903376396    5.11457437846474    0.26255453664330
C          -0.40947226110839    6.17222704103742    1.15748210363101
S           0.23333037371662    6.34247701326070    2.78416273698025
C           1.61700453688296    5.15128991861403    2.75686425408713
C           1.14484847157605    3.78135461712422    2.33551624157370
S           0.88951711148452    3.71471612711547    0.53368966956059
C          -1.28581929995279    7.12357369107672    0.63848267951705
S          -1.75442909085491    6.70188818020784   -0.98366267141918
C          -1.78899408681132    8.29626674079358    1.25322423119141
C          -2.63925348196973    9.26523549949601    0.72348240862280
C          -2.95665322835123   10.28937294521955    1.63944397903633
S          -4.00444383880242   11.66863990284330    1.34812381879306
C          -4.86127492341902   11.19110641136983   -0.18876648738588
C          -3.86916111717793   10.79657760007422   -1.25308149390029
S          -3.20984537229015    9.12747741916686   -0.93199424657793
C          -2.33610692241497   10.13276605117978    2.87765797462311
S          -1.37020948585825    8.68571127476928    2.89618553215150
C          -2.40725175354649   10.96764410878053    4.01980300855756
C          -1.80235816647773   10.79805098678340    5.26385289251761
C          -2.08294839738060   11.84386033077774    6.16957210096342
S          -1.50268211902520   12.02061796845273    7.81940950708293
C          -0.17418537227768   10.77682857643734    7.88631878604853
C          -0.67317524997962    9.43712926813990    7.40333554953155
S          -0.78796680791099    9.39857542098353    5.58146640532025
C          -2.92441684019028   12.81021260858336    5.63871887674181
S          -3.34724731730624   12.43232233549518    3.99252709329734
C          -3.45639723541248   13.99016823702985    6.21435766990120
C          -4.27818214588217   14.89588069261737    5.55966853125102
C          -4.63905323895584   15.96279019998708    6.37719531039245
C          -4.09443926695534   15.87302927405525    7.66510075903160
S          -3.13682665781197   14.47014027718436    7.87035010024347
C          -4.52006231236848   17.00724217203907    8.41077916731553
C          -5.33351981732226   17.80408878745981    7.59434447159338
C          -5.43929304374359   17.18122774721004    6.29156498359882
C          -6.13699250225278   17.62825587226227    5.20675975376696
C          -6.87929194108554   18.82699626098676    5.23360868590242
N          -7.48907664798172   19.79832141370341    5.24801155334728
C          -6.16511261627506   16.92598342138978    3.98440801547416
N          -6.19828045670062   16.36472588329181    2.98440357908983
C          -5.80315798562772   18.95359003706234    8.26097746585763
C          -5.34663783970684   19.00641901759602    9.54114430316677
S          -4.33481734474750   17.66364239657002    9.97507418322353
H           0.13444848222220   -0.55417425794214   -7.44226685105411
H          -1.48158409770444    1.43022719920255   -7.98904300981724
H          -2.12283912196437    5.54994607166218   -3.38168312925161
H           1.98324894023695    5.14617798977146    3.78331609353551
H           2.39593725696691    5.52703866648260    2.09321937535235
H           0.21528097023494    3.50920880043724    2.83588714347500
H           1.90129563874436    3.02118566948932    2.53102378655350
H          -5.41636566152997   12.08576972297347   -0.47051136832265
H          -5.55786833608778   10.38140577422448    0.02875319229667
H          -3.04013861896220   11.50205474970972   -1.30944867029875
H          -4.34374166991007   10.71019527773464   -2.23040812912624
H           0.11117956129290   10.74090501384783    8.93778536392382
H           0.66924642826903   11.12603486509354    7.29033339456604
H          -1.64935977630784    9.19825273185365    7.82563115467102
H           0.03241271778739    8.64156303638043    7.64198027376344
H          -4.58334850700996   14.76126858784118    4.53749764830211
H          -6.44106158823636   19.69946409143355    7.82312316199935
H          -5.53878603092020   19.75968476899352   10.27848945576065
