118
 SCF done       -231.951018955695          0.000818757326
C         -13.62683783851569   -4.29842692568032   -3.61924385622318
C         -13.55168230820304   -3.65312270553661   -4.82197354430797
F         -14.64095401162975   -3.07042519543471   -5.34294117181262
C         -12.33428810008022   -3.59255913253048   -5.52749818964933
F         -12.28914187486851   -2.95434801548634   -6.70603483924379
C         -11.20773163531581   -4.17829204044780   -5.02075883952311
C         -11.25343048196255   -4.85189906932823   -3.78533693214909
C         -12.48405095997190   -4.91285395871712   -3.07035128970972
C         -12.55438929930859   -5.58444638737669   -1.82711725446712
C         -11.42942797654938   -6.17598564725218   -1.31896265622732
C         -10.20554727502702   -6.11503792776065   -2.04269870608414
C         -10.10613002878875   -5.47494406530907   -3.24303208316389
C          -9.16975001805642   -6.86011422599299   -1.30281634475599
O          -8.04122067509357   -7.11464581820870   -1.69118721553048
C          -9.81475587254578   -7.34258126311758   -0.07699915665631
C         -11.19708484704422   -6.92051578342223   -0.08297115581085
C         -12.11609930332258   -7.10422754808611    0.92011993829390
C         -11.85242829565016   -7.73135035950244    2.15505710224422
N         -11.70747718444833   -8.20807481405752    3.19016578202591
C         -13.45133745304831   -6.65628131072511    0.85884751162933
N         -14.55100873771795   -6.32522788794215    0.86561822209334
C          -9.24469218707062   -8.20749662861811    0.83273799788003
C          -7.89193975699350   -8.48764463085038    1.03915769154323
S          -7.50313085447851   -9.93731414416693    1.95613347058412
C          -5.79233013810337   -9.61247186955662    1.97462187831119
C          -5.52917582678108   -8.41533597315828    1.27734746830539
C          -6.70426724607686   -7.80428243907644    0.76072656259285
S          -6.37640179131237   -6.30761644443631   -0.01843469748585
C          -4.67234342175370   -6.52851143539763    0.27572075068421
C          -3.74223177208380   -5.52643881959804   -0.25278175419194
O          -4.08207711649889   -4.45972121646842   -0.70205406605514
O          -2.47465233386157   -5.95862597392730   -0.19207263693477
C          -1.47052440123842   -5.08928083127823   -0.71657628609510
C          -0.99322166407301   -4.09331441343650    0.32949523480577
C          -4.37121591596566   -7.68104547637675    0.94727329927635
C          -4.93942657079918  -10.48654894752168    2.65530293742522
C          -3.64065595101048  -10.19914302579787    3.00727263097274
C          -2.79036095584886  -11.06197815306014    3.68835204680694
C          -1.53593316427422  -10.67605183180514    4.13114590283122
C          -0.57667786296738  -11.44943956031270    4.81276831140286
C           0.55899018666945  -10.76264518401429    5.15131306915398
C           0.53936725048280   -9.41285799986848    4.76044303290290
S          -0.94450121364118   -9.03999993829432    3.92379588374448
C           1.48639289851282   -8.41994322135569    4.98634810458657
C           2.72948268658738   -8.50892284632552    5.63633437242587
C           3.39344669888542   -7.31593216504227    5.70561975585644
C           2.69980952200092   -6.22685578293618    5.13048022952862
S           1.18578207039696   -6.78187267880202    4.46185095291203
C           3.18108102983410   -4.93238783991192    5.09031453149004
C           2.59641681324593   -3.74694213720836    4.64752172002900
S           3.65044031950882   -2.33697998338629    4.60666439346042
C           2.39362654174418   -1.26733909022527    4.04914210234370
C           1.19310330497328   -1.98675206345680    3.91462368922038
C           1.31297956816167   -3.36024002668507    4.23708487352480
S          -0.20653146862034   -4.17585393277059    4.08139495588341
C          -0.96735585139064   -2.69373443357973    3.57026506234147
C          -2.38891651421883   -2.69692201498352    3.20451425287266
O          -2.99479093578287   -1.71791187930077    2.84879626724647
O          -2.89864404188052   -3.92997857827531    3.29613631709285
C          -4.27010056523623   -4.09684980848223    2.93192984793827
C          -5.20806457536383   -3.66282092497418    4.04769550090483
C          -0.11695210101466   -1.62848750396706    3.53000938301690
C           2.60935215112392    0.09079973236816    3.80789064817466
C           3.82991025766462    0.70186320354175    3.93973721108233
C           4.03136714891484    2.06717444977677    3.71314589706030
C           5.19949903791693    2.77198483656914    3.86896752957853
C           5.35273990124678    4.08465818014007    3.19544192781969
O           4.47531020945682    4.75195643295528    2.69443163388461
C           6.80395704069533    4.36603247278823    3.21644287715054
C           7.48819423632919    5.39093923733376    2.63117114372377
C           8.89673993245231    5.42934081630634    2.74371241830670
C           9.56803471785478    4.39725781579618    3.46063975428669
C          10.97329577634374    4.43280434025606    3.55735900661768
C          11.67874965385744    5.44679146807951    2.97238681131219
C          11.01370419785529    6.46859460293799    2.26657277030474
C           9.65144529556796    6.46170778748180    2.15417414210711
F          11.73094278251257    7.45065018321264    1.70216679083913
F          13.01559079798927    5.47739843183170    3.06461445020227
C           8.82990929917196    3.35406427349342    4.06694572439114
C           7.46626367213963    3.34203810604766    3.95184328599131
C           6.45631749948209    2.42407093971524    4.48099392147821
C           6.66340176954258    1.54641125607766    5.51806178770758
C           5.64259134103038    0.87385212470879    6.22016347837758
N           4.85892808587933    0.33539657755228    6.86443759227416
C           7.92777805083126    1.28872228705688    6.08446162314713
N           8.93507009931796    1.01669888831927    6.56455362194470
H         -14.56690188944465   -4.33481660556809   -3.09114939944608
H         -10.28305188594515   -4.12302923012119   -5.57357104683330
H         -13.50128346395742   -5.61707165675131   -1.31294124249600
H          -9.16570462654711   -5.44246064466894   -3.77159398805240
H          -9.91692084911608   -8.77224993534941    1.46734910746351
H          -1.87611471537511   -4.56231527070268   -1.58627887636641
H          -0.65926391352828   -5.75211198500171   -1.02539695118518
H          -1.79395419719315   -3.40157748123799    0.57951167618460
H          -0.15315138992486   -3.52632303141131   -0.06176163630248
H          -0.68239720732794   -4.62138262066203    1.22831511749479
H          -3.35863730675179   -7.96537410571201    1.16175226464773
H          -5.36721180195125  -11.42807590080987    2.97394969915662
H          -3.25346440818173   -9.21488312099669    2.78742648797070
H          -3.11001784916275  -12.07380994035036    3.89655162978823
H          -0.74667814269218  -12.48717106732319    5.03865327827983
H           1.39208216246568  -11.19347095980462    5.67676674224526
H           3.10389675093879   -9.43405875776272    6.03549157121614
H           4.35588489041449   -7.18477340736653    6.16730546713292
H           4.19148633709468   -4.81613469791777    5.46491426422054
H          -4.37123768134460   -5.16427782761386    2.72346941193980
H          -4.46895667065482   -3.52002322104936    2.02252112189258
H          -4.98280283182450   -4.20532467513778    4.96305406376500
H          -6.23371029487949   -3.86773761728698    3.75529267724590
H          -5.10142455330216   -2.59647230512362    4.23036015683170
H          -0.43190387374939   -0.64438662109181    3.23651781385889
H           1.74745806064861    0.67906656138188    3.52246296533086
H           4.67551114375299    0.08298720735969    4.20620036834468
H           3.20810635162130    2.63319745305514    3.28990039159250
H           6.96357692140834    6.16073376143227    2.08598859661803
H          11.49794208128908    3.66001186415187    4.09721807408954
H           9.15710659716877    7.25104116393975    1.60982653182612
H           9.36578678798802    2.58404815702708    4.59845725049631
