110
 SCF done       -218.450504579444          0.000476520691
C           6.67235692435466   -3.04131349173524    4.65140186365027
C           7.40773011934521   -3.22968041263733    5.78800331475760
F           8.35542849334175   -2.34602393447763    6.13160111878047
C           7.18113016140903   -4.35027584615484    6.61089619654940
F           7.91731404898146   -4.51015429805952    7.72026484671495
C           6.22181477764275   -5.26811180064110    6.28579579105816
C           5.44798977956670   -5.10189072771521    5.12125734064348
C           5.67551807632671   -3.96884957146327    4.28835423553512
C           4.91025458901270   -3.78003679819557    3.11382675445508
C           3.94797401723845   -4.69651114192332    2.78259758642551
C           3.73106852823992   -5.82603660183170    3.61973191288898
C           4.45101027968082   -6.03572940489371    4.75927470263681
C           2.65705997250881   -6.65466051621546    3.04031143186990
O           2.21812922745456   -7.69051697085647    3.50834914417133
C           2.24380748702378   -5.98260843941585    1.80615732184549
C           3.01938849713023   -4.77002249986997    1.65484433145947
C           2.91905051260820   -3.82962112533777    0.65916689258905
C           2.02303972493037   -3.86771977263022   -0.42810131555077
N           1.32645285708679   -3.81740686332018   -1.34101746449721
C           3.71006022209911   -2.66423285412115    0.59140422214568
N           4.31799702409377   -1.69692232048121    0.47440338644363
C           1.29053899154873   -6.43938609720853    0.92547305214190
C           0.48107418354736   -7.57902220915225    0.96375200573329
C          -0.42794273469829   -7.85781359447869   -0.06771943868879
C          -1.13334348660423   -9.01878591603143    0.16330166879724
C          -0.77828259977425   -9.65292284196896    1.38684509599353
S           0.44492224546397   -8.79817011932622    2.24052109898131
C          -1.57189071376446  -10.79417843629142    1.47764814443495
C          -2.38703785875328  -10.83683297888838    0.32069104247868
N          -2.10808331480371   -9.75168738070551   -0.46674703138459
C          -3.24444764057545  -11.93189213811416    0.27574909249812
C          -3.10060258384432  -12.73827595118562    1.39452376187244
S          -1.88485844492141  -12.13287361901826    2.51266099172697
C          -3.78446958492386  -13.92711750559215    1.74849281312527
C          -4.74097200896792  -14.54327276222166    1.00903629882057
C          -5.43743069248679  -15.72186006599450    1.39753767403173
C          -6.40102888936353  -16.29173406350187    0.59455250389164
C          -7.14364580386113  -17.42659306479579    0.91261385072034
C          -6.95329008747305  -18.12030271376880    2.18960325784753
C          -6.05645247720612  -17.74907878409314    3.12845776873160
S          -5.01209646047861  -16.40068598754413    2.96718226037436
C          -7.88417268261371  -19.19312551645776    2.17732459639777
C          -8.61419704815549  -19.18126230429800    0.98631666242876
C          -9.52932014598077  -20.25827059487915    0.93294962115779
C          -9.47604408757840  -21.02453045730413    2.05362548681664
S          -8.31828617273462  -20.48656900220440    3.22018310473904
C          -8.16065693289099  -18.07434899830781    0.17908723666218
C          -8.60419855027119  -17.69122276959908   -1.10571725206342
C          -9.69026206571770  -18.18510146105641   -1.75685180570181
C         -10.08184222489698  -17.81535638414577   -3.06334421564505
C         -11.21515229426905  -18.25448896141996   -3.72886691581571
C         -11.29882453726506  -17.72915776744054   -5.01496390374422
C         -10.21788785529909  -16.88160308604433   -5.35441023014422
S          -9.10278543428757  -16.72784565891969   -4.04766329994068
C         -10.42708330411001  -16.46257712138308   -6.66424197896804
C         -11.64151937113083  -17.05787758792386   -7.09681784048034
N         -12.15655798667854  -17.81646701953157   -6.07796105136779
C         -11.98725329234241  -16.74588310866547   -8.40245713088619
C         -11.04117968880718  -15.92475743131176   -9.00283856778258
S          -9.71266241697593  -15.52182046253967   -7.91223077292683
C         -10.98847558817326  -15.45813687046193  -10.32864336302403
C         -11.99401398179377  -15.56830172828093  -11.24701592720344
C         -11.92068670002527  -15.12222544861301  -12.57956743909091
C         -10.83048668840526  -14.87822628114648  -13.37622494028322
C         -11.00878753714221  -14.01169553968674  -14.56730246539478
O         -12.05693340418313  -13.61511338239370  -15.02802380478367
C          -9.64286486901524  -13.70019277755606  -15.03853920660688
C          -9.24890422134864  -12.86116841055147  -16.03949639657613
C          -7.86851031151209  -12.70177970523647  -16.29827600501064
C          -6.92317412598589  -13.41190199066647  -15.50358029649560
C          -5.54812570763255  -13.24501150615392  -15.76235041114766
C          -5.13145303295346  -12.41582018787592  -16.76560177524829
C          -6.06703287174412  -11.71534184654540  -17.55169213154632
C          -7.40753636198509  -11.85400768608804  -17.32389208306252
F          -5.62996362790152  -10.90727419425471  -18.52897395968288
F          -3.82235947910045  -12.26077958390493  -17.01136970342337
C          -7.36323540742996  -14.27808691856776  -14.47573187606290
C          -8.70532390191155  -14.42782128153330  -14.25318641702792
C          -9.44376561754557  -15.26689009906576  -13.30752810914753
C          -8.91747913338298  -16.37399152947925  -12.68556954347812
C          -9.67642692404911  -17.32438790043950  -11.97787426486313
N         -10.24191785549830  -18.15279064850698  -11.41817907325706
C          -7.55912706680420  -16.74026688251149  -12.74921413139223
N          -6.46041629274146  -17.07522025672329  -12.75307359325213
H           6.85845909486124   -2.17757788885803    4.03235415889019
H           6.06051612207604   -6.12116428518988    6.92609202076068
H           5.10952302391644   -2.91249104630293    2.50624657676396
H           4.26340004119091   -6.90191497435773    5.37536555379949
H           1.12192201223482   -5.83355743131734    0.04345381641289
H          -0.53611804648050   -7.21678986610810   -0.92414578566214
H          -2.53821065172465   -9.53075903990823   -1.34766503854382
H          -3.93871479136772  -12.13691611337710   -0.51743524667194
H          -3.50136997906100  -14.35548854562466    2.70103745333754
H          -5.02518254023541  -14.13103338870829    0.05093941404078
H          -6.58920069028408  -15.80364719029031   -0.35256402624553
H          -5.93457436057419  -18.28111141618335    4.05872830108119
H         -10.19081849731832  -20.48228222795289    0.11669713015067
H         -10.05696334081203  -21.89812794307502    2.27668040741038
H          -8.02295195096338  -16.92935731555411   -1.61054413847344
H         -10.33239886379339  -18.90296420258998   -1.27010192840919
H         -11.92952949204062  -18.92355524944797   -3.28510250851958
H         -12.99217750562907  -18.37311186194583   -6.12127487106735
H         -12.85482731535310  -17.11432862925368   -8.91635487140900
H         -10.08114484029554  -14.93819480626680  -10.60937420397059
H         -12.95160374470950  -15.95089989762823  -10.92374669891104
H         -12.86683227305634  -14.87073054019934  -13.05085755289949
H          -9.97945848331992  -12.32714047265096  -16.62780725435173
H          -4.81862751672619  -13.77763807243181  -15.17244303882183
H          -8.11149309959072  -11.31085458403576  -17.93474584170938
H          -6.62428086850804  -14.79667303936786  -13.88625617864937
