78
 SCF done       -160.641284158596          0.000307003810
C          -2.72146093939660   -2.92553562841613   -1.95473980677314
C          -2.11072400986543   -2.68962047788676   -0.76108929289957
C          -1.94886248349907   -1.30963137183418   -0.53189599408245
C          -2.45292679639092   -0.53106022529566   -1.58077928113530
S          -3.11703350357836   -1.48339843742654   -2.83189884353950
C          -2.24527698035174    0.84282707153068   -1.26860550775786
C          -1.60967458403434    0.92227155453147   -0.02212218386346
C          -1.40453631460558   -0.42872013520641    0.48468204028642
C          -0.82458843158476   -0.78231508319184    1.66827266614113
C          -0.33345098059637    0.17030532921329    2.58553895243337
N           0.06986866692477    0.93185157981690    3.34241175305709
C          -0.67818983499957   -2.12979752606903    2.05860836571857
N          -0.55633074564975   -3.22357841024829    2.38136606287193
C          -1.35229821835209    2.23429991465536    0.37599822869664
C          -1.78832393702171    3.15465658895838   -0.55723382618796
S          -2.53148928152762    2.38030049815102   -1.95123552899216
C          -1.68034900247872    4.57710363309980   -0.48454138331277
C          -2.17566209131879    5.42906027372293   -1.47127664922187
N          -2.10059666072731    6.74723368463298   -1.46113544233914
C          -1.50936350670179    7.39932545301771   -0.46828859568840
C          -0.95510262451142    6.66473260179452    0.61757242905772
C          -1.05155828686180    5.23065833304662    0.60861171067448
N          -0.50239213826640    4.69364760635578    1.69673666301775
S           0.07102141609132    5.86605032772661    2.63552508466180
N          -0.33965315567500    7.11319324452906    1.70917911722249
C          -1.49389228277004    8.82752140466404   -0.55670970996000
C          -0.87582590846680    9.63389696568126    0.36783638528011
C          -0.86740641201425   11.02264692606902    0.32634950920135
C          -1.47830404062367   11.73240856157744   -0.80413250066683
C          -2.13239129221650   11.12268677399200   -1.82163420339154
S          -2.35105769476935    9.42816969761526   -1.96018749673872
C          -1.21065515600688   13.10897713884441   -0.57487981814986
C          -0.48679984995608   13.25539222880031    0.61075887658850
C          -0.19235830462767   14.60941351412780    0.88977917222766
C          -0.68509571570385   15.43492523632813   -0.06891672260893
S          -1.52605496838102   14.61294704555885   -1.34284922501441
C          -0.27675780302147   11.96225188579775    1.20344723729818
C           0.41347568298065   11.78289895698095    2.42717632471424
C           0.45285074319908   10.66249075995103    3.19569893388368
C           1.20194323179543   10.49953958611771    4.39889372809118
C           2.02824617613735   11.45632487793190    4.99822724593148
N           2.73850952208403   11.29669740127767    6.10153336595732
C           2.71908091407736   10.15032569687616    6.76906914656786
C           1.91669312851461    9.07979315114735    6.29115299702011
C           1.15528898403920    9.25597359282683    5.08920345365857
N           0.47785422916433    8.15426977991402    4.77061317140361
S           0.76692565989407    7.02174834987169    5.87859481482874
N           1.77010127346370    7.86701605492682    6.81483472713322
C           3.51564968113470   10.01594302142787    7.94360001174083
C           4.35990642309456   10.96936397782933    8.48736470382778
C           4.99588610761272   10.49827921601634    9.63317851518250
C           4.62576280671953    9.18139225713547    9.95644298030852
S           3.50255073267311    8.52183352092862    8.85407756038673
C           5.32751541199912    8.79777553042576   11.13356280811345
C           6.13465644072309    9.86479771434393   11.54685295373542
C           5.95842478227765   10.96895038327080   10.62182485412692
C           6.56905053013013   12.18852853995004   10.66370781434733
C           7.49313213710179   12.53053629565458   11.67287921715635
N           8.24614121924195   12.81507490677113   12.48992517152978
C           6.32524206558472   13.19302545041193    9.70389498307142
N           6.14086856574610   14.02172951000453    8.93300273109150
C           6.86774043476366    9.56529378253522   12.71120693810599
C           6.60711123235754    8.30267928354889   13.14942297091228
S           5.46839527395585    7.44406189695481   12.16394115590644
H          -2.97183095366258   -3.87257371902898   -2.38901643267098
H          -1.79587446700356   -3.46574710078120   -0.08778711738386
H          -0.87325180309103    2.53296232959484    1.29018050349813
H          -2.67424227945220    5.01121220246140   -2.33686150707460
H          -0.35649926005782    9.11814259406052    1.15972697670780
H          -2.57187174247185   11.68524867938002   -2.63071325633947
H           0.35248899665542   14.95936281333345    1.74774900036286
H          -0.61109730935645   16.50375332794972   -0.11764963194303
H           0.94016603856094   12.66359680389288    2.77266444783941
H          -0.12774299862404    9.79326059904704    2.92902011695032
H           2.13189759116357   12.43643867916433    4.55428286769645
H           4.47862696881257   11.93991221765275    8.04256155103178
H           7.54818012900667   10.23819231485489   13.20008327791115
H           7.01791155199497    7.80706698470548   14.00613368284897
