112
 SCF done       -203.684141779803          0.000833379432
C          -9.39926554984255   -8.84396787822892    9.90223583225801
C          -8.65072184842447   -9.14918272090524   11.00430151776191
F          -9.24934660896108   -9.52659171274223   12.14124619110640
C          -7.24439519572163   -9.07037841616616   10.95989128968593
F          -6.53567080109169   -9.37340866936144   12.05548623666393
C          -6.60569246260746   -8.68812806185806    9.81325371557341
C          -7.34906223065936   -8.36672884973091    8.66148370814363
C          -8.77111048476217   -8.44576004227412    8.70527605983575
C          -9.53892527212734   -8.12503901148120    7.56213197163085
C          -8.90299492744255   -7.73556781776497    6.41330129918362
C          -7.48307463213420   -7.65517345273098    6.38017165426135
C          -6.71496631631654   -7.96174167592355    7.46497647757380
C          -7.05508716669462   -7.19474252787715    5.04399736512411
O          -5.90814474781975   -7.04406909714144    4.66947654260994
C          -8.29046277333100   -6.93843416762280    4.29119479726706
C          -9.41826475709972   -7.33619736602383    5.10668056360756
C         -10.73632921887538   -7.40149440495621    4.72675365611560
C         -11.78076015362856   -7.85219868212414    5.56095002997703
N         -12.67794329981697   -8.20747416678007    6.18281329521132
C         -11.24122014570431   -7.05180910460044    3.46250872072245
N         -11.73445452707898   -6.78268744012470    2.45862022507252
C          -8.38261705738637   -6.34354721218116    3.05723094483903
C          -7.39508211978229   -5.99563129372665    2.12910626079623
S          -5.69158645317555   -6.37530375468127    2.27227975822899
C          -5.40028828467233   -5.73802689725388    0.72399779106263
C          -6.51798027208665   -5.22594360403492    0.10818414504176
C          -7.66084021794220   -5.36786310635251    0.90191944467204
C          -8.98949487034658   -4.84844332708467    0.45909111135915
C          -9.05074477735558   -4.74209683330146   -1.07156337684245
C          -7.85116622191536   -3.92060021808600   -1.55149315318793
C          -6.53069347374934   -4.63317620519548   -1.26458756176393
C          -9.17061056837620   -6.10728865660488   -1.72414470550528
C          -8.67499774441120   -6.42394707192220   -2.91174927007427
C          -9.99114853378224   -7.09617607456615   -1.00443192358380
S          -9.29800160585088   -8.19793801167577    0.15241474263445
C         -10.84392895300081   -8.89402519903121    0.45606706377982
C         -11.82732711572767   -8.32331991440112   -0.28362938394379
C         -11.33404845031695   -7.29358576015191   -1.13465019620536
C         -12.19812341766336   -6.57288310149750   -2.12570512487487
C         -13.69954808289189   -6.77672658843678   -1.88374058043578
C         -13.98189424675034   -8.23963378547149   -1.50681933874821
C         -13.28412896901422   -8.64662564291266   -0.21196703649538
C         -14.28885102609660   -5.81176601932753   -0.87175312118030
C         -15.58539604846489   -5.48373463602888   -0.96323782608025
C         -13.42589752740214   -5.31515520449438    0.16444839593589
C         -13.54430091258182   -4.17470988457224    0.89519896348351
C         -12.62161482851860   -3.77315058572419    1.90540448951709
C         -12.89676872363151   -2.57837475980999    2.48169711220986
C         -14.05659620008488   -1.94616168976471    1.96293582492458
S         -14.78518194768644   -2.92974444063131    0.72280801119941
C         -14.58690437137383   -0.73468707876001    2.36319747596117
C         -14.10120137267488    0.11855408026121    3.37757964555553
C         -14.84859634936212    1.24487688287382    3.55120023291296
C         -15.95692646374043    1.34178470920916    2.68001900529489
S         -16.02941376601177   -0.05323857154625    1.63694501096343
C         -16.87647482695123    2.37451184827688    2.65432912800618
C         -17.92686227722280    2.46417748551623    1.75311718974973
C         -18.90007076820931    3.44463912128316    1.70272395690866
C         -19.63425910331287    3.68391501255705    0.44692704221550
O         -19.64866214560751    2.98846046583366   -0.54555063656596
C         -20.31219790424355    4.99318031020098    0.63685726544022
C         -20.07095965483432    5.45189508532910    1.94549232160783
C         -20.55860016832971    6.68154566585297    2.34716434674567
C         -21.29369937737432    7.44388078890090    1.43889162557397
C         -21.54752488058782    6.97101320966063    0.14144127217781
C         -21.04651570088561    5.72884763780843   -0.26551769796780
C         -22.28601797162054    7.72126623190075   -0.80743976084601
N         -22.85077399443147    8.23270418196101   -1.66340704786889
C         -21.83090164449168    8.77032337065424    1.83588487444864
O         -22.60520989904188    9.41655425987669    1.17916532973384
O         -21.36189985357707    9.18717446606190    3.01759646222722
C         -19.29777332299289    4.43312862400779    2.66345835727473
C         -19.18492307301285    4.36128887441344    4.03322080886786
C         -18.70801414109968    3.23389939596027    4.73082512207497
N         -18.37151434974838    2.33176394455733    5.35695538002668
C         -19.63679677945098    5.36145164997662    4.91571550305348
N         -19.96384104225850    6.14934762683914    5.68496710280783
H         -10.47492875514910   -8.91013496455878    9.95274946242548
H          -5.52851061762613   -8.63259758030407    9.79599074559087
H         -10.61291255389806   -8.18898451697152    7.62948190586263
H          -5.63906848033770   -7.89303477783465    7.41314740377113
H          -9.38486514001468   -6.10150620121870    2.72949415186325
H          -4.40491411622996   -5.74844272883145    0.32227540976065
H          -9.13717872528271   -3.85129327192531    0.88909855067669
H          -9.80297235313055   -5.47967285151769    0.81894606669157
H          -9.96855258765535   -4.19301374474344   -1.32387713235516
H          -7.86628498519405   -2.96375479933060   -1.02456764189139
H          -7.93436917887253   -3.70678927605861   -2.61706538417807
H          -5.69658380511781   -3.93690615560470   -1.37689927239988
H          -6.37777891496921   -5.44237635687661   -1.98317502443869
H          -8.11182272705416   -5.73864367096025   -3.51949681160940
H          -8.82672661144065   -7.40635282139393   -3.32615177650577
H         -10.92785991177212   -9.68541893471254    1.17396148824906
H         -11.95273188479954   -6.95810580844789   -3.12103294716668
H         -11.96183917576583   -5.50582909344028   -2.13452306346186
H         -14.21480621966412   -6.58172757344512   -2.83098782412348
H         -13.62891072449879   -8.87791863882383   -2.32032603813842
H         -15.05821218785013   -8.38683775304740   -1.40313450770902
H         -13.42480028237288   -9.71324720679261   -0.02607548266463
H         -13.72514633227212   -8.10665489082905    0.63173494192629
H         -16.20383434577765   -5.87311099957048   -1.75409162282531
H         -16.07810763472092   -4.85895856197641   -0.24027947788871
H         -12.55152985237546   -5.91038974855072    0.38678248124623
H         -11.79601223428907   -4.40810071813284    2.17070322690028
H         -12.30488522644482   -2.12680446475896    3.25713273268850
H         -13.22369207032139   -0.11707148218010    3.95204675816658
H         -14.64416292496934    2.00681222822268    4.28176711816271
H         -16.72118261588610    3.16510138168070    3.37439973464918
H         -17.95045250560072    1.75112740077079    0.93460393419259
H         -20.38150180446193    7.07394895474587    3.33503439357928
H         -21.22885582300399    5.35881346953052   -1.26309176301520
H         -21.74766971693332   10.04763162346202    3.24465333852094
