104
 SCF done       -206.276763618417          0.000530796425
C          -9.86911671761288   -2.34959554917836    6.21669848500890
C         -10.62936145297038   -2.98158344848075    7.16140029343148
F         -11.34998296868887   -2.26298293802653    8.03410367399781
C         -10.66794329573327   -4.38801505236198    7.22640546530127
F         -11.42203632385201   -4.98062665644142    8.16424990815928
C          -9.94057179402681   -5.14598145287073    6.35169530598130
C          -9.13461965275974   -4.52316187063862    5.37993622650577
C          -9.10174038117782   -3.10087178564031    5.30486053085212
C          -8.30987430710577   -2.45531784746957    4.32618145731519
C          -7.56214517047471   -3.20864022550471    3.46128852211856
C          -7.58229801384468   -4.62900604044335    3.55985786786857
C          -8.34840851709426   -5.28134878855460    4.48235498592318
C          -6.67889152743735   -5.18684713426012    2.54076713809742
O          -6.41965417157024   -6.37053981766074    2.37558517782523
C          -6.15348405008863   -4.05239154742946    1.78559367132274
C          -6.66849314672888   -2.83207117979697    2.36703125336602
C          -6.37242823240628   -1.53987708187712    2.00589469334580
C          -6.90962695178613   -0.39863433767045    2.63676434909057
N          -7.30481732009006    0.57440797414929    3.10114386324236
C          -5.48530648421335   -1.14994995053123    0.98527053981936
N          -4.76759285644929   -0.74165885049365    0.18476751526192
C          -5.33106299904463   -4.13552320741031    0.68194550524694
C          -4.79724930515824   -5.25209012843781    0.03412453581753
C          -4.00766424672865   -5.14981192204479   -1.13637431072159
O          -3.62900807969974   -3.96659560360873   -1.69191764136449
C          -2.80563760421715   -3.09471657292079   -0.91983517799260
C          -3.70156455501558   -6.39052878818400   -1.70773374065532
O          -3.02235364650807   -6.67316026343345   -2.84037505974003
C          -2.44346914622107   -5.63026838466260   -3.59852142075715
C          -4.19712365852449   -7.46317554349834   -0.95418105661117
S          -5.06715334535969   -6.92333268617626    0.44899357560941
C          -4.02784246866590   -8.84190118784618   -1.23396405535574
C          -4.50639498392779   -9.80554738798099   -0.36549031656421
C          -4.39301748790826  -11.17283640298873   -0.55168929497777
C          -3.74794387126299  -11.73087469123957   -1.73991485558451
C          -3.20498562107138  -10.97245109315707   -2.71960403359351
S          -3.18928774270098   -9.25645711170494   -2.72169514674758
C          -3.84521855011256  -13.14039764860766   -1.58947141333256
C          -4.50514257474623  -13.45546939471090   -0.39547581453523
C          -4.60457371969475  -14.85406484545780   -0.21130367327792
C          -4.04070893404800  -15.53973621122461   -1.23914363897387
S          -3.36323794839036  -14.53143960115888   -2.47212875319686
C          -4.85645289450458  -12.23112222033720    0.27369709715711
C          -5.51682527774059  -12.02341924411611    1.49642524718507
C          -6.09765768511734  -12.97226091880428    2.28832210596101
C          -6.77955590331399  -12.68805183023604    3.48760528420326
C          -6.94447023901386  -11.46471085862584    4.16448410605078
O          -6.37849359628792  -10.34122195180253    3.68015561644505
C          -6.87560392546953   -9.08257163374898    4.10467737370515
C          -7.73376640156727  -11.58709473532091    5.31790133754362
O          -7.95513518575663  -10.54262218945590    6.18158619463167
C          -7.39326434443333  -10.69207383103712    7.47241453454087
C          -8.25441039229399  -12.87626720495592    5.51628951037643
S          -7.59301690286115  -13.96687696078677    4.33047445669834
C          -9.16595559468410  -13.36349301178357    6.46365502012615
C         -10.05641228573432  -12.67331620092577    7.25321335937763
C         -10.58674685059903  -13.31022358686058    8.48254428892142
O         -10.48571406791707  -14.47365074990134    8.80480476838513
C         -11.20245520993467  -12.20883736273851    9.25711275008858
C         -11.76097759890892  -12.23749634440778   10.50112370922752
C         -12.26300423902583  -11.03796329459807   11.05741065867770
C         -12.17270740460134   -9.82748639790303   10.31120238190314
C         -12.66483801039792   -8.63363216322994   10.87530648078630
C         -13.22778623376926   -8.64345622105943   12.12102200496289
C         -13.32217391604700   -9.84154061656680   12.85576211944164
C         -12.84946741834020  -11.01467624279044   12.33711540638836
F         -13.88041485963967   -9.82227845719951   14.07517793718199
F         -13.69718763750096   -7.50928302073953   12.65841261309487
C         -11.60197034657858   -9.83209878846025    9.01698025727865
C         -11.12767101584409  -11.00601290372876    8.49845615047635
C         -10.53978164893657  -11.32136474941369    7.19933112693842
C         -10.62604204037987  -10.52624289179110    6.08032242564621
C         -10.38822870747376  -10.99283613169102    4.77464499759086
N         -10.25785219385915  -11.34214358543831    3.68833214614056
C         -10.97918570949311   -9.16887229175398    6.09676886347720
N         -11.17937674299596   -8.03817673916175    6.04097857938453
H          -9.85747820889376   -1.27161045124904    6.17493775681476
H         -10.01036383123231   -6.22248583977775    6.39409965130880
H          -8.31820008818780   -1.37823631402154    4.28858858172391
H          -8.35745790453164   -6.35964543869713    4.53135662550544
H          -5.08274191318700   -3.19810700657224    0.20232102473458
H          -1.83875475688441   -3.01066103049801   -1.42410446178659
H          -2.65088217217097   -3.47361102698831    0.09115362690671
H          -3.27250283047285   -2.10922855200857   -0.87471622719928
H          -1.63294921963495   -5.14489844337297   -3.04897478438123
H          -3.18670685372611   -4.88442856896942   -3.88419514947422
H          -2.04029082166304   -6.11485679985191   -4.48633378494400
H          -5.00645224102086   -9.43838641243755    0.52074866665432
H          -2.73209068660758  -11.40615681837949   -3.58684571946637
H          -5.05970272648807  -15.34355240251062    0.62949392682696
H          -3.97522367150037  -16.60353170126482   -1.35883508043893
H          -5.58371341553164  -10.99888662896325    1.82574882627499
H          -6.09163408135212  -14.01010933889564    1.99073980527977
H          -6.52071908374409   -8.36072432666132    3.36923744930833
H          -6.49332433983270   -8.81660948963883    5.09287015405495
H          -7.96717799688597   -9.08333547060229    4.12506912474822
H          -6.29920993317483  -10.68615956938721    7.41931458218611
H          -7.72133376789314  -11.61257026163750    7.96185789720261
H          -7.73531398023835   -9.83266351514058    8.04665622179200
H          -9.14625848412178  -14.43572910085478    6.63235860868312
H         -11.82150075547310  -13.16161274762053   11.05557062723441
H         -12.60218187456413   -7.70763999217395   10.32467196216413
H         -12.92865799871679  -11.92311133287209   12.91347969010691
H         -11.54979005317014   -8.90305382899286    8.47146435230077
