117
 SCF done       -234.818874079196          0.000254125855
C          -3.22588230118919    2.31655596873729    5.52549318752415
C          -3.20127867226098    2.49833955078115    6.87961321994967
F          -3.10103876445105    3.73293372310270    7.39231152382801
C          -3.28020393624047    1.39538603322354    7.75283879857279
F          -3.25247846436042    1.60300337166292    9.07744318790512
C          -3.38336520615840    0.12517508080631    7.25944580437260
C          -3.41011434168673   -0.09509198313336    5.86870875802472
C          -3.33076213139230    1.01919856019846    4.98430916639672
C          -3.35471328573274    0.82217592600938    3.58457070640732
C          -3.45939336449453   -0.44960075024065    3.08486595046568
C          -3.53704070701879   -1.55533038814836    3.97560248427879
C          -3.50912326829086   -1.39746677400403    5.33053097759647
C          -3.61923813271780   -2.81041444796795    3.19926646032533
O          -3.54500112468002   -3.93226667712681    3.64974702549613
C          -3.65124075954864   -2.39310935831869    1.77405228690944
C          -3.51248796822422   -0.95219554381596    1.71408871554928
C          -3.49799367279822   -0.17689658153582    0.58320998732041
C          -3.58898797891254   -0.65633407785146   -0.74060727795502
N          -3.66370037480829   -0.95033619238618   -1.84831970820919
C          -3.39209965262383    1.22945564952896    0.59141590956451
N          -3.30345161551226    2.37278861544652    0.53272752024761
C          -3.65817046226986   -3.25160374126008    0.71426270869910
C          -4.01242303798319   -4.62850950466701    0.76651852926214
C          -3.42141358883255   -5.54459917165829   -0.13532562513251
C          -3.69339350540723   -6.94698423855633   -0.07919895300907
N          -2.97296483779694   -7.79065341324378   -0.85027250308479
C          -2.12838296319381   -7.31059235525523   -1.71623654724286
C          -1.95585026943632   -5.89607846249877   -1.86450177546326
N          -2.55570997279506   -5.06824833944872   -1.05583533766698
C          -1.06853942816851   -5.31786680657986   -2.91232768453903
C          -1.34578770157250   -8.28266066257790   -2.53408656689876
C          -4.65208292808807   -7.47736254656146    0.80960614983359
C          -5.32956341585068   -6.55658471993526    1.62698786380623
C          -5.00941861319663   -5.14790076674993    1.61543778890167
N          -5.82464902982421   -4.44898386016213    2.40671352500047
S          -6.85179437322937   -5.45859767186754    3.10891984936591
N          -6.35921009859880   -6.82079672596069    2.43765043527771
C          -4.93406753748817   -8.89138054823858    0.86746866885125
C          -5.05975371298961   -9.67349633561465   -0.29690635951921
C          -5.31628911508793  -11.08280855933718   -0.23621572359174
N          -5.24433186813650  -11.80640887746044   -1.37391609279845
C          -5.08944271182114  -11.21340460408008   -2.51825515765704
C          -5.07128194183153   -9.77951369013617   -2.59171570984106
N          -5.01921428209021   -9.07137540769053   -1.50495762308482
C          -5.09068574439171   -9.06052760699565   -3.89811359284484
C          -4.95202270784796  -12.06319491502755   -3.73586173060268
C          -5.55761069255862  -11.73962625988162    0.98643050308288
C          -5.46393239678531  -10.95732525454811    2.14925801358185
C          -5.13261126873969   -9.55089794355381    2.09185518104496
N          -5.04067076369692   -9.01520738209251    3.31278463342477
S          -5.40109143981444  -10.13656281650801    4.39513526142749
N          -5.66228210480477  -11.36562691525610    3.40675005861994
C          -5.85030358446345  -13.15107483840574    1.04643147240135
C          -5.26157537912373  -13.99109222384713    2.01561812621879
C          -5.63359266951725  -15.36498002692034    2.13677009980992
N          -5.09464152043836  -16.11381719210515    3.12202985343798
C          -4.23779559309076  -15.58069884765214    3.94650803440809
C          -3.80606616273606  -14.22567508778656    3.77207429419869
N          -4.30362028699104  -13.48893732086062    2.82263210442700
C          -2.74668270542467  -13.62641906538122    4.63341020161871
C          -3.68904101253585  -16.44441297538080    5.02884880807660
C          -6.59883729780117  -15.96778485107223    1.29253228033869
C          -7.10864704877064  -15.15270353979182    0.26095068020807
C          -6.74330798530671  -13.75827976219664    0.14986271178695
N          -7.38602253896859  -13.15928262835051   -0.85770034582353
S          -8.29229070356246  -14.23287456529665   -1.61335594452531
N          -7.95597223208084  -15.51825221508985   -0.70418371059012
C          -6.93646564329133  -17.33132520855310    1.50428615265717
C          -8.01904169083865  -18.05338524353082    1.10103143484190
C          -7.92055525056123  -19.53829438912310    1.07092625998781
O          -7.05512473372752  -20.22269318802633    1.56625521123910
C          -9.07510858313028  -19.98766756035625    0.26331863574362
C          -9.38632812682720  -21.24589109423264   -0.16303526132398
C         -10.53993532698848  -21.43637480644323   -0.95702313180642
C         -11.34710800414384  -20.31237828749047   -1.29733308366492
C         -12.49241678546153  -20.50900756772827   -2.09480971622697
C         -12.82227976077705  -21.76141957137534   -2.53082502237739
C         -12.02418629157453  -22.87193285478056   -2.19243740189260
C         -10.90651676618383  -22.71424900158118   -1.42191715251006
F         -12.37091557125102  -24.08942777727290   -2.63523475360152
F         -13.91296433360944  -21.94537391541748   -3.28852754784281
C         -11.00293554383522  -19.02141334689696   -0.83420892739584
C          -9.88553219432227  -18.86225380648907   -0.05958408651452
C          -9.31114763208079  -17.68032701010735    0.57801966864915
C          -9.98245599350886  -16.51060098953006    0.82417204754694
C          -9.50165775635219  -15.49893523854903    1.67833271517559
N          -9.16789088304646  -14.65968576295286    2.38723019309090
C         -11.25670974718516  -16.21004790445901    0.30576436520309
N         -12.27928634828648  -15.90031053580624   -0.11538974629407
H          -3.16508070791416    3.17205001954692    4.87103225810320
H          -3.44229828153671   -0.70896814901837    7.94097660735260
H          -3.28594550414401    1.68584275839288    2.94329517210096
H          -3.56479057027803   -2.25555379082778    5.98300291369575
H          -3.33717806360015   -2.90643254509307   -0.26017967634063
H          -0.04260158359949   -5.65427558229114   -2.76898122542697
H          -1.10377519311666   -4.23382155778547   -2.85566660797587
H          -1.39174178787029   -5.63896059509497   -3.90129844756419
H          -1.63106972530447   -9.29369155172489   -2.25771409402567
H          -0.27823708557535   -8.15020010739803   -2.36444419444825
H          -1.53894266038999   -8.12720682001959   -3.59442564127299
H          -4.23438982396932   -9.35060146168239   -4.50507045742522
H          -5.06126148177124   -7.98958884637655   -3.71923869376029
H          -5.99463431026457   -9.30824506701618   -4.45254711055750
H          -4.96442441033662  -13.11008502163603   -3.44722915402764
H          -4.01998650173997  -11.84129055687298   -4.25347013989477
H          -5.77367296573096  -11.87044407214498   -4.42399139456375
H          -1.83365146678404  -14.21797929620270    4.58743977648479
H          -3.07850417494287  -13.59873452044367    5.67013901774277
H          -2.53939387412975  -12.61537447271084    4.29554010680134
H          -4.14751873963396  -17.42738394905175    4.97366818973248
H          -3.89427128179087  -16.00222590470440    6.00243420065899
H          -2.60931782601866  -16.54398660978480    4.92665229093976
H          -6.17569678818006  -17.89895865316646    2.03228133358691
H          -8.76165931206084  -22.08576081175911    0.10074305692998
H         -13.11659511902486  -19.67010477688329   -2.36029545425240
H         -10.30567216468751  -23.57446849180912   -1.17137981417749
H         -11.62764067029457  -18.18730896712555   -1.11123920875260
