77
 SCF done       -153.198036502890          0.000470891359
C          -5.27844070598974   -1.63135173808280   -1.02873664365388
C          -5.00419846568408   -1.40402444506957    0.28665892642754
C          -4.75100703561036   -0.04035036010962    0.52539457424568
C          -4.84404928531690    0.73056474699325   -0.64158538344607
S          -5.23340956614873   -0.20541536127237   -2.01085253998058
C          -4.57631767991982    2.08766811440059   -0.30810228501430
C          -4.31455401874642    2.16774151354609    1.06832144454639
C          -4.41383186567576    0.82883493238415    1.63656733052230
C          -4.22122396547243    0.47182186759063    2.94003727545144
C          -3.88569145123045    1.40565329797934    3.94210538575935
N          -3.61091945121884    2.14854322106928    4.77168680102992
C          -4.34077925782261   -0.86341883825001    3.37731384757489
N          -4.43585218637015   -1.94703414913229    3.74160539348888
C          -4.03481140808206    3.46583791098815    1.49554029888872
C          -4.08334114002725    4.37653798943460    0.45608995255445
S          -4.48040208261394    3.60294138384069   -1.07892858883834
C          -3.81022905048993    5.77636673008896    0.48600514193060
C          -3.92888183701279    6.56544430173327   -0.65523482227222
C          -3.52111457609211    7.88551136728154   -0.70739857179368
C          -2.94743549318130    8.55057765771488    0.37934185175775
C          -2.96345617553793    7.83088231868950    1.60914353723803
C          -3.37210657676851    6.44899613490650    1.66074174663827
N          -3.26088665693392    5.94970560682874    2.88875815523685
S          -2.70821855724077    7.09149060845099    3.87720059031248
N          -2.56787739383694    8.27841142144454    2.79598483137376
C          -2.30546373258095    9.81534568687374    0.29310044027037
C          -1.71655941900513   10.31198597078999   -0.84305098876183
C          -0.97990213240593   11.51553537009102   -0.99583538193176
C          -0.35517634591998   11.65322666417190   -2.20357422724104
C          -0.55954225178071   10.56272179638159   -3.07211896935982
S          -1.61617227160941    9.38859013916523   -2.33164860396923
C          -0.06338251092952   10.25160136999541   -4.32992145843258
C           0.75530368987463   10.93858183943920   -5.24299231748044
C           1.03799514763583   10.22139225626328   -6.37458378160814
C           0.47034936615320    8.92516921575647   -6.41091235100960
S          -0.46979227926803    8.67259155109784   -4.96004944216256
C           0.64446815261941    7.96513989977886   -7.38731998048007
C           0.14773627253391    6.65568636537868   -7.36907360709923
C          -0.66545478037812    6.01680411301992   -6.42706710612976
C          -0.87913824974981    4.68504564762210   -6.72354069284046
C          -0.24805259565699    4.25987400989578   -7.91082262328492
S           0.61227698426834    5.54000853783572   -8.66146766108208
C          -0.51372570687035    2.88667121539966   -8.08184505376439
C          -1.30483193949719    2.43595422511209   -7.00193378111998
C          -1.56289043424117    3.54512873017097   -6.11768332534443
C          -2.27446881783331    3.54400240502921   -4.94915172065019
C          -2.86517448837205    2.38066066835008   -4.41753492856368
N          -3.34855472750312    1.44557790725040   -3.96015093356420
C          -2.47811411699766    4.70215719747109   -4.17302041229582
N          -2.66992033167316    5.62729011794786   -3.52107458395867
C          -1.60791314657423    1.07350186613319   -7.08177209503800
C          -1.06233231876223    0.48240179466391   -8.19960915616915
S          -0.15296608799569    1.62947994993771   -9.18489121803664
C          -1.15637576776252   -0.87819841142614   -8.59622134197618
C          -0.61596250551904   -1.47409700542596   -9.71082281354843
C          -0.91747501784859   -2.84087638280324   -9.76241296944619
C          -1.68572554560887   -3.29637599597582   -8.69340701845126
S          -2.04990041274396   -2.01461756869108   -7.59509503530003
C          -1.98262687610657   -4.67113016599057   -8.75249377583189
C          -1.43927760254381   -5.24003092458753   -9.85983435441208
S          -0.55789604514312   -4.13046842588886  -10.85598804217596
H          -5.50729386620684   -2.56892571554116   -1.49485377798362
H          -4.98639499469684   -2.17365216200235    1.03651893140601
H          -3.80364501747206    3.76325977281492    2.50204900882422
H          -4.31660993895881    6.11674005049216   -1.55742478224567
H          -3.67700184158817    8.41778367992749   -1.63112010599304
H          -2.16921132518249   10.35883969629667    1.21807748805876
H          -0.91953559745600   12.23626547765177   -0.19915712248065
H           0.26368642452896   12.49055745350080   -2.47437993654543
H           1.11668658014215   11.93334129520055   -5.05079546299805
H           1.65195585818674   10.58483862383403   -7.18010497833638
H           1.26007883969800    8.23917671826367   -8.23402262926147
H          -1.08170337060722    6.50346877417716   -5.56756880363857
H          -2.19472244611984    0.52825667908730   -6.36417940441740
H          -0.03533791598544   -0.94450799969747  -10.44387722371133
H          -2.56152048652746   -5.20121620806882   -8.01939297011560
H          -1.49874617281562   -6.26527399951059  -10.16655516854353
