68
 SCF done       -147.261515520791          0.000454041837
C           1.54034193149464   -1.35791851472999   -0.40040873550587
O           2.78719985750914   -1.74708522743997   -0.93341522073937
C           3.65755048105759   -0.82206586886157   -1.34359209103950
C           3.63073703980702    0.58310091724999   -1.33532010163331
C           2.66491426452897    1.55363489611020   -0.97501998037830
C           2.87242233974287    2.87772403496429   -1.22616901281589
C           1.95197001381007    3.91977622235735   -0.96325842172993
C           2.29807869837982    5.25757357719076   -1.30328278840524
N           3.52235429037899    5.47482993529488   -1.82881250248303
C           3.86544503692046    6.69555666650695   -2.12884279570880
C           2.99579321285696    7.78065347024398   -1.89923493485190
N           1.79943939995231    7.60279995136643   -1.41576005922943
C           1.39708845799851    6.34972049771065   -1.11350307228994
C           0.06281662323738    6.17333806992958   -0.63471630023634
C          -0.74567510398272    7.33843408616146   -0.56441126076246
C          -2.08859086432713    7.53214440119579   -0.42564217442688
C          -3.18254827576170    6.60972146501893   -0.37618424964821
C          -4.40034221145969    7.17611167126483   -0.30590731644782
C          -4.41354389522673    8.62721121982007   -0.28347703059540
O          -5.34220620545443    9.38355021146687   -0.22054249797269
S          -2.69539452548733    9.18533656209154   -0.37372366653028
C          -0.26451412271747    4.85219902433698   -0.25047292992087
N          -1.40137794895063    4.44489764442208    0.31734620342684
S          -1.32101715146383    2.87617982241557    0.63087038720337
N           0.15574695256446    2.60772421919678    0.06231805179860
C           0.66813501230878    3.75253348494708   -0.39551710621461
O           4.79655453135455    1.03200526954790   -1.86469608823215
C           5.56444033815398    0.00118071509913   -2.21765465923907
C           6.83027638572498    0.28048502765778   -2.82749908397545
C           7.03294021338028    1.46929852362454   -3.57013830137687
N           6.01194908165317    2.34462889801619   -3.68397161663652
C           6.20641820713870    3.44950363700828   -4.34343058932597
C           7.45549551702363    3.74366693510695   -4.92978271645396
N           8.44391093954474    2.89617923606031   -4.88602744703986
C           8.27797127387008    1.73035286025451   -4.22662153738600
C           9.36156171243578    0.79969069773859   -4.22971289375437
C          10.50785226291232    1.15876437852848   -4.99084008995026
C          11.57122331415129    0.43698798720889   -5.44291388461988
C          11.86336499767191   -0.96521238040402   -5.36453531513591
C          12.98803273705869   -1.34477768078572   -5.99379720165140
C          13.72991752921528   -0.27824102192786   -6.64544299508864
O          14.75371042744597   -0.32701264652510   -7.26587926727979
S          12.81870135122874    1.26152445280027   -6.37057037620160
C           9.17887586991329   -0.33817259743887   -3.41313391781502
N          10.08294992184150   -1.27292205949671   -3.10657598109876
S           9.45796836456131   -2.29915001592487   -2.04514250161079
N           8.01294033589190   -1.63713810168015   -1.90537472184567
C           7.93885919191647   -0.57066555070183   -2.70310390038136
C           4.89744331697874   -1.18731074970828   -1.92625185304631
C           5.25533193467012   -2.58981223956555   -2.27643318459409
F           4.16743859170064   -3.31358691826342   -2.58775868043108
F           6.05279590555776   -2.67022643792849   -3.35770964494579
F           5.87155222984223   -3.26220768512766   -1.29172362564006
H           1.02725374356835   -2.29010591608234   -0.16995190951713
H           0.95657019442650   -0.79041375903907   -1.12925228432763
H           1.66470638919704   -0.77302005568779    0.51445420580383
H           1.74294630233326    1.24323973809928   -0.51480869856623
H           3.79852713225890    3.18688218197120   -1.68900406115155
H           4.85239149057342    6.83574777998264   -2.54872052835533
H           3.28738323462758    8.80026869204683   -2.11115836333802
H          -0.15988998462258    8.24126824902626   -0.69668466794101
H          -2.99980196890089    5.55118684441436   -0.39318946514957
H          -5.33676478906168    6.64757004132522   -0.26961206888180
H           5.36613603810033    4.12664154700498   -4.41256466759712
H           7.63984282556761    4.67636376369746   -5.44527743741147
H          10.48126986260220    2.19771449030862   -5.29925911433100
H          11.20772395209105   -1.62539271464942   -4.82732682856667
H          13.36657578679521   -2.35021585582803   -6.05177242874985
