76
 SCF done       -157.378164014277          0.000886995753
C           3.28315808636515    3.85443478579507    3.11291549354521
C           2.31676206521892    3.58521191366350    4.00177497303261
C           0.97626995900247    3.65545719729577    3.47948636738963
S           1.01490433765843    4.08476976841848    1.76563670005986
C           2.81838099577807    4.17293742780994    1.76935719710847
O           3.45286586103738    4.44966754900731    0.79197308995505
C          -0.14661719571567    3.50198450972853    4.21419590103243
C          -1.49437242535619    3.68616051762638    3.72225229614854
C          -2.03823644633909    3.21007680616872    2.54486594594040
O          -1.54204717077318    2.21627602049474    1.79058664658236
C          -0.67842434125994    1.25119812434596    2.34802495548328
C          -3.29244392879865    3.72656111842817    1.99527384670242
O          -3.50698018424892    3.23228806383554    0.76960932917944
C          -4.49314124348006    3.76260383694575   -0.08454166108648
C          -4.07194678951203    4.62507777041266    2.69223419719806
C          -3.59381197642299    5.00526436173274    3.97634323486590
C          -2.33322166662826    4.54515390740927    4.48417348313344
N          -2.17521594699361    5.06956931226461    5.67979685062677
O          -3.26851000597351    5.79667820351521    5.91323745305218
N          -4.13393064080130    5.77231193701853    4.89905257934045
C          -5.35426509571872    5.20648321839555    2.30856720824084
O          -6.40085801610653    4.42432753044091    2.03053444538945
C          -7.49622938303736    5.20916724445396    1.84731845225061
C          -7.13679736112936    6.54699663608126    2.02274064712124
C          -5.74235766827728    6.53651156350650    2.31865377463723
C          -4.80602924580814    7.68729603811566    2.44251774233866
F          -3.51922911281435    7.31031430319674    2.39453176461183
F          -4.95159532167832    8.56230188324672    1.42306372424517
F          -4.95016451722848    8.40423157726186    3.56631731801327
O          -8.02558472229339    7.53819951361150    1.90364477545653
C          -7.76588038328048    8.80758394255931    2.48214336009326
C          -8.73090134640081    4.58910205221441    1.51034301851901
C          -9.86269324534487    5.27732009804698    1.23855796506547
C         -11.14934869834374    4.73587254758116    0.91189378227602
C         -11.45444525760328    3.42840556231619    0.53824710931325
O         -10.42244233693241    2.52673154499458    0.33529750929459
C          -9.77616109562077    2.68358500871201   -0.91608188163887
C         -12.79091494607801    2.97048493572858    0.30928217641035
O         -13.09228745735357    1.70515083400223   -0.05929808379361
C         -12.25833284899320    0.59702461724053    0.21952598498139
C         -13.88631806916233    3.84346482217325    0.34870161950295
C         -13.58240718918904    5.20329629896639    0.60158655843202
C         -12.25009458815187    5.63515460243784    0.91831460555487
N         -12.30010016827557    6.93141043559612    1.14806331058889
O         -13.57133966661052    7.28713788443567    0.98667750323766
N         -14.36298133856505    6.26565489965943    0.65966018735691
C         -15.25546843154815    3.51876958769762    0.04946783961377
C         -15.96223315800496    2.40071717801068    0.33687565729384
S         -17.61000599271251    2.20869190888819   -0.26523997304782
C         -17.80321033429423    0.62331770990074    0.56780888159061
O         -18.79597316455233   -0.04507623432793    0.48619150910305
C         -16.57890442547688    0.36167177651149    1.31002555367925
C         -15.61713821929549    1.28809719728319    1.17662515179756
H           4.34062019752284    3.86322717568228    3.30974085155093
H           2.48076753922020    3.33843632702970    5.03671594355632
H          -0.04881179344637    3.40156478423487    5.28777218641012
H           0.37139235946532    1.52911209543594    2.23151070985558
H          -0.86588757539263    0.33418671397506    1.78891358680710
H          -0.88979896270292    1.08904369569058    3.40815427896599
H          -5.49204184552781    3.41975192409214    0.19750998573627
H          -4.24631097286117    3.38265901481123   -1.07535558123741
H          -4.46826695440416    4.85510679621945   -0.09763093788769
H          -8.73225305192687    9.30860685729334    2.50707287316651
H          -7.07607688320094    9.39378966670322    1.87246609007410
H          -7.37863699159235    8.71121359839256    3.49812467154262
H          -8.71140057360748    3.50923965777675    1.50288557821548
H          -9.84592231114191    6.35482911679424    1.30496005644367
H          -8.98246062072089    1.93894597347940   -0.93949411866017
H          -9.34663934743408    3.68378208427613   -1.02305627226047
H         -10.47184364209580    2.50399567213168   -1.74292642708175
H         -12.92548844046994   -0.26638788283732    0.19818484813017
H         -11.78794438567011    0.67670626846369    1.20069444543204
H         -11.48643720677866    0.46687544377541   -0.54140027397246
H         -15.79020398201328    4.32412366070013   -0.43947964596556
H         -16.51909610608458   -0.52792867811761    1.91253324892828
H         -14.67186698570240    1.25786818294752    1.68673582527953
