74
 SCF done       -147.910877439003          0.000713800409
C           1.64958618427328   10.74759517493895    1.68131655278381
C           1.23733209286592    9.72812910960775    2.45793980893661
C          -0.12905780203223    9.34177818410227    2.27693234695744
S          -0.88776777488967   10.34233272843545    1.05421399182771
C           0.64449622163806   11.28729378779388    0.79112394548515
O           0.71224133170829   12.18301227640539   -0.00219227792737
C          -0.74012302922153    8.33826985915213    2.96996662731805
C          -2.06859621352390    7.89026973044693    2.86316951481657
C          -2.62972687380820    6.86826651495351    3.62431194191408
C          -3.96044999618052    6.64020235719265    3.30654542144939
C          -4.43053002701494    7.49913673089666    2.28098657765634
S          -3.22761899536118    8.57929647982858    1.72803054065351
C          -5.77873638628919    7.19566996102626    2.02795823151120
C          -6.17767496042515    6.14386368751212    2.88716952961122
C          -5.04516414675725    5.77745895279719    3.72935652566022
C          -5.01163124989042    4.85304495448897    4.73411040099010
C          -6.11851809637875    4.08622157374271    5.14504971969326
N          -6.98850558644538    3.44907668428072    5.53859776942887
C          -3.84092684128777    4.62234594966838    5.48986260796607
N          -2.89922715958541    4.43830771330989    6.11733633197562
C          -7.49173003308467    5.75565218367731    2.70914593621349
C          -8.14020624683644    6.50338685425609    1.71794551554315
S          -7.05446683802095    7.70792965193272    1.01145994189480
C          -9.45448163631555    6.44422435630930    1.24393777790010
C         -10.44158869764337    5.55361669214463    1.61472071732864
C         -11.77624863680066    5.53756699699436    1.14624310235473
C         -12.55238484801892    4.54422147834579    1.67861934217416
C         -11.86362785908856    3.72063059393891    2.58541001643254
S         -10.20763294126907    4.24852306708857    2.75140901641504
C         -12.26827055112551    2.61819404740051    3.32791391017349
C         -13.51742720264782    1.99199406638581    3.48497660764058
C         -13.49161432931315    0.93012085536169    4.34899031676674
C         -12.22045250437217    0.65838235734647    4.90589267359554
S         -11.05827149577608    1.80793024555516    4.28460144865576
C         -11.90237201697644   -0.28997351674927    5.85833870721947
C         -10.61594445230326   -0.52166966322977    6.36029288896892
C          -9.38742371565905   -0.10136630464125    5.84197419462722
C          -8.32794375010650   -0.42335155093180    6.66399243366782
C          -8.70863612754210   -1.11507652515531    7.83631781087200
S         -10.40002585513398   -1.39282873365997    7.88531139456668
C          -7.55565788079912   -1.33399981937018    8.61183650418002
C          -6.44185610147787   -0.76877308302214    7.94153268627686
C          -6.89101734609892   -0.19598465146791    6.68969580284942
C          -6.14330186153338    0.41901718753668    5.72751306900569
C          -4.75949551659648    0.63891406157331    5.88363477663373
N          -3.63426734850153    0.82363525702330    6.00893784389282
C          -6.68117530436956    0.84036097382800    4.49274077880251
N          -7.07644067337626    1.14020136674766    3.45831246113494
C          -5.24696310255814   -0.92942827047696    8.63087966218749
C          -5.40858320945140   -1.60926314716471    9.83042372619346
S          -7.10386263832240   -2.05794147987570   10.08894573293362
C          -4.49864280883268   -2.00573502604127   10.83254376430480
C          -3.15529588872140   -1.79013068984180   10.94063393545470
S          -2.29528159001100   -2.47382172204573   12.31938886997727
C          -0.71389047174647   -1.80381395015129   11.75604251812172
O           0.31355242173345   -1.97562121509460   12.35062299634260
C          -0.96444567338437   -1.07486995557577   10.52814178085420
C          -2.24263938317950   -1.07087784718772   10.10571183413672
H           2.63592926079121   11.17623102813310    1.67439327856821
H           1.85703498417119    9.21470557053746    3.17335570504926
H          -0.13802082087623    7.81253951332194    3.70153331156874
H          -2.07164381437503    6.33085552488117    4.36958101872805
H          -7.96488678010297    4.97278903414339    3.27071160791148
H          -9.72850489696653    7.18040530728499    0.49915944593109
H         -12.12686804121808    6.26100822345084    0.43138655988936
H         -13.58757183841654    4.38569298297258    1.43442542575224
H         -14.40022432755024    2.33982609149312    2.97879036589932
H         -14.35248976803580    0.33631844731271    4.60141998960394
H         -12.71818355433239   -0.85316224824261    6.29095964102979
H          -9.27159652112703    0.37862957941389    4.88998133535800
H          -4.30367015041273   -0.57129777802157    8.26698830418838
H          -4.94393151260035   -2.57666247857949   11.63845827079281
H          -0.14234641961333   -0.58804484855519   10.03359451118122
H          -2.56323237704815   -0.55956148396109    9.21701261312262
