74
 SCF done       -155.940326295024          0.000772442051
C           0.98600295447811    1.34932655877490    4.61339500982843
C           0.62075348659121    1.23792634208037    3.32413866086099
C          -0.66780368946576    1.78180777112491    3.00875645639371
S          -1.41277042580502    2.45566319254832    4.44492167232434
C           0.01839340933131    2.00191170657427    5.47268224255019
O           0.06126166977477    2.24003800978997    6.64482211741527
C          -1.22032977873686    1.76704774224160    1.76387928081859
C          -2.47178722152148    2.27390898519473    1.36135540778294
C          -2.97357734359192    2.21863499094562    0.06412864991994
C          -4.23057288218478    2.79832429810343   -0.03822715143639
C          -4.69858733395703    3.30426298969359    1.19301029968105
S          -3.58994569835199    3.06180488399131    2.46675074971847
C          -5.97780764516821    3.87462401281088    0.98330897701267
C          -6.31942752424032    3.73182351954417   -0.37374282681038
C          -5.23505854088013    3.04812081960345   -1.05962826421783
C          -5.17737865764719    2.71012030292580   -2.37968191730907
C          -6.22720171600936    3.00592103044226   -3.27479362811637
N          -7.08161102797043    3.24698055064072   -4.00038064691272
C          -4.06599295524640    2.04167165861327   -2.93495873385409
N          -3.16265395190230    1.49614900801537   -3.38317633476342
C          -7.56704450120017    4.27085397542380   -0.68048626057944
C          -8.17947380366558    4.82180734703465    0.43137026464241
S          -7.19572591302544    4.66994264942216    1.88024782305036
C          -9.44595186664533    5.45574386581534    0.48350625235496
C         -10.08485196475003    5.99391059281699    1.58630254776784
C         -11.32474921960214    6.53967940805486    1.25463903643481
C         -11.62766762110854    6.41612943239104   -0.11227715081732
S         -10.39309589447454    5.62784341264507   -0.98824533283621
C         -12.89670886027764    6.99855927460777   -0.34984869024496
C         -13.40123294098116    7.48997406570627    0.86659320736029
C         -12.42998936011698    7.21790154849878    1.91553762148393
C         -12.53358945015203    7.53272889220138    3.23810211501915
C         -13.66348773752655    8.19544264486138    3.76270438344098
N         -14.58219101955067    8.73509299161348    4.18594935046810
C         -11.51770435401166    7.21579020683957    4.16486704753225
N         -10.69210481567534    6.95681900056981    4.91693512345123
C         -14.65474655944571    8.08652503283502    0.73175109983505
C         -15.10395644820312    8.05403245767604   -0.57610288407172
S         -13.95867812629179    7.27079656833185   -1.65745645824687
C         -16.32111021228320    8.56184916224569   -1.09476860958471
C         -16.73936606155969    8.54129864674941   -2.41359043820056
C         -17.99184829001788    9.13074231425158   -2.57190467105372
C         -18.53345541902528    9.60310819228534   -1.36329667103690
S         -17.49723396235795    9.32201321614986   -0.03287498374787
C         -19.79939182941419   10.18069224918949   -1.62984107704577
C         -20.05712274861331   10.07414891968781   -3.01074588653664
C         -18.92835019699362    9.41486523018754   -3.64741278814766
C         -18.77449074854675    9.13652197201448   -4.97372989792133
C         -19.75490924520398    9.48794877541156   -5.92522791687890
N         -20.55493595720357    9.78407642367597   -6.69143682921613
C         -17.62487394389863    8.49096137080446   -5.47600147439334
N         -16.68912716701863    7.96730133839240   -5.88159331350543
C         -21.28597078257633   10.60991859675043   -3.38256244623551
C         -21.98077667566234   11.13779228259812   -2.30417073760820
S         -21.07809452190625   10.93766238824888   -0.79776552621193
C         -23.24780916521497   11.75856432032718   -2.20672324969945
C         -24.08100035052689   12.19377310450513   -3.19285886395777
S         -25.65352739599195   12.85875729030607   -2.75777132395330
C         -26.08109683131551   13.16342418693275   -4.48723460659869
O         -27.12961383426337   13.63510126161299   -4.82435004297409
C         -24.94711604925420   12.75097085984642   -5.29589331625044
C         -23.90547984372180   12.24236826435272   -4.61499750278858
H           1.91021253049337    1.00263192136118    5.04025344315484
H           1.22049432395849    0.78153174258823    2.55519596066550
H          -0.63661568123966    1.31116712839155    0.97315000564120
H          -2.42970304189241    1.77268649425025   -0.74890151287888
H          -8.02063534844175    4.27076600218540   -1.65544191285018
H          -9.65536642839267    5.97974612826452    2.57198636364658
H         -15.22262068168367    8.52690268989561    1.53168037054099
H         -16.14919020010796    8.11571275811289   -3.20526917861142
H         -21.66931332912179   10.58226781214898   -4.38399746559566
H         -23.59760996766606   11.91030886846360   -1.19297521655258
H         -24.99675730150219   12.87508968895192   -6.36336006389389
H         -22.99403831254968   11.92231665783341   -5.08547773659480
