73
 SCF done       -138.379261303981          0.000841255302
C           2.74257431434414    1.00791402491346   -1.25174868267244
O           3.88921317247426    0.50640226476683   -0.57553526019749
C           3.83945998467938    0.54522363505541    0.75189632127987
O           2.97684762895774    1.07090851573339    1.40179358542633
C           5.07040836328744   -0.07107233726864    1.35805773604094
C           6.23229740055639    0.68027491510090    1.49435916855171
C           7.31726862378115    0.09676223677226    2.11561444796913
C           7.28071605838997   -1.21787069732842    2.61303083279869
C           6.12117887948675   -1.96124073497891    2.48006080197300
C           5.02119992812990   -1.37843123628587    1.84960053472510
C           3.75927745514185   -2.14202981621422    1.65106986766071
O           2.89390798459760   -1.80958321452687    0.87838864894520
O           3.69617301009555   -3.23127571938568    2.41447176486612
C           2.51894725421861   -4.01683116976785    2.28719855221426
C           8.58175754103142   -1.54883612522421    3.21351468117629
C           8.87806662299057   -2.77943138244698    3.75006750192204
C          10.08722722392804   -3.21048657062423    4.31333662063067
N          10.99945262301368   -3.72085838831374    4.79329664947403
C           7.97549858260152   -3.86487819321901    3.81091948081968
N           7.32204883457663   -4.80430898207250    3.90820396672064
C           9.41080987374731   -0.37865002752750    3.09913867723508
C          10.67700527500470   -0.04008220029415    3.51006851003736
C          11.63097195549236   -0.73115978637930    4.20002774376984
C          12.59888093323387   -1.17188400875546    4.80536726974763
C          13.59527424996021   -1.81591430304377    5.49820207995133
C          14.83518081208353   -1.33688056606718    5.95206773019536
C          15.46368125830101   -2.37758188431264    6.60775000971244
C          14.60777563818904   -3.49059715817102    6.54788705798665
C          14.82110658721276   -4.76110347394572    7.06687763152370
C          15.04263437285990   -5.85946964634214    7.53378490275977
C          15.34024088307685   -7.09796459020956    8.08627652346974
C          16.44008598717475   -7.46449285408141    8.85876847004546
C          16.29916639292631   -8.81086968569718    9.17487232202283
C          15.11480986875728   -9.25681260035690    8.59189439859256
C          14.56653624429227  -10.53346086012475    8.62727597784723
C          14.14405219415345  -11.66976308599027    8.68522988968246
C          13.70818328323003  -12.98551503346806    8.78358457602944
C          14.29181799582539  -14.03959053837483    9.48830485039574
C          13.50500052825121  -15.16264783369674    9.28283869455478
C          12.43671871291941  -14.80433216647111    8.45288330529020
C          11.32682432547550  -15.49834621450396    7.91462161588952
C          10.98736665305149  -16.81307961602586    8.00881730277158
C          11.65266381519547  -17.90360084080385    8.64822646791306
C          11.02702726776485  -19.09126546634118    8.54378161199983
C           9.78173485398950  -19.07734906594931    7.80334078632754
O           9.02481821713258  -19.97765062255713    7.56165992568278
S           9.50059743671817  -17.38567893004186    7.24484515228256
N          12.59413320168457  -13.46946459508637    8.17392237582097
N          14.54879133795875   -8.20148622111308    7.93813165305099
N          13.49177530937876   -3.12692729775278    5.87812219547822
C           8.64878545812362    0.67629589726817    2.38897915839604
O           9.04711392304657    1.78437678285935    2.10354519013594
H           1.88655134874861    0.36422436954243   -1.04251277831130
H           2.98429340576027    0.99435568822731   -2.31111620615877
H           2.51750085180060    2.02249259616505   -0.91676989119961
H           6.29241342681551    1.69417522691259    1.13005480643773
H           6.03411481464419   -2.97153067927061    2.84233952374656
H           2.65452890126787   -4.87056398234884    2.94586695988349
H           2.39076869445594   -4.34283777493774    1.25287362179771
H           1.64352201518432   -3.43520137330157    2.58367132350223
H          10.95810865441414    0.97731784933689    3.23846855186610
H          15.20525259032893   -0.34092417806644    5.80923804062160
H          16.42588124293392   -2.36341036570560    7.07994037810487
H          17.24030458825172   -6.81283898486060    9.14779453417676
H          16.96808916326147   -9.41226519047883    9.75732929620375
H          15.18479045070414  -13.97354058337029   10.07718156262318
H          13.69095572874928  -16.12851685594281    9.70450092402174
H          10.64555984921621  -14.88038887397571    7.34083511769052
H          12.58691685671093  -17.76632551452650    9.15992041800835
H          11.37566645098996  -20.02172582783972    8.95646008678244
H          11.97421442183638  -12.92982290398345    7.59186517428285
H          13.68286751254094   -8.22884097730316    7.42500434466330
H          12.68175269857225   -3.69637419578251    5.65200293480933
