106
 SCF done       -226.087169358215          0.000581314650
C          -0.16496432115558    5.30500801155023   -0.54042760859893
C           0.96147173389968    6.02884777864020   -0.83022848079992
C           1.18690789098698    7.34729673692682   -0.38505400231411
N           1.43010257933327    8.41225353816320   -0.03334921389635
C           1.97373086915243    5.56764300285818   -1.69826064415429
N           2.78726510428733    5.24813537204305   -2.44245068984806
C          -1.38040219452847    5.84683207992759    0.06759999018737
C          -2.46493531110522    5.01672021795535   -0.27417521595232
C          -3.75534396268050    5.30988633030603    0.12016000486201
C          -3.96802685884919    6.45932609767862    0.87286956118219
C          -2.89328265720492    7.28219559583967    1.22486311486784
C          -1.59083439386215    6.98415365491625    0.82556320417021
C          -3.19379053715621    8.51448284528871    2.00496051103179
O          -4.30025600398300    8.98532394712298    2.10416840026194
O          -2.10718272409472    9.04088508187099    2.56540616510323
C          -2.30602950821331   10.23105037081105    3.31667085176092
C          -5.34884932980365    6.78580667247701    1.37507057292504
O          -5.74748821091199    6.46680931722804    2.46246793266199
O          -6.06927484720632    7.38130364024942    0.43135423915369
C          -7.37469850282332    7.79747113360167    0.81478001712733
C          -1.97325762980133    3.86256243307755   -1.06338401081538
O          -2.62209353831991    2.97813909255459   -1.57055083105272
C          -0.49304095777339    3.99325172855346   -1.05310822094813
C           0.28137328878268    2.93374962411063   -1.42120120498217
C           1.63669127049453    2.67029196004049   -1.12887225745120
C           2.46173555391635    1.79270140694149   -1.82151638704866
C           3.74672509442091    1.71319126355006   -1.31155231591119
C           3.90343018248402    2.50445766500127   -0.17314168195263
S           2.47497785247877    3.36441381305753    0.24207362781251
C           5.16694647708085    2.50092416618202    0.45897907325816
C           6.17544763141868    1.73450891074973   -0.12131068796316
Ge          5.47415081928338    0.85424617846914   -1.74068206857596
C           5.43222309538332   -1.12361717414504   -1.59707776891162
C           6.27752115638890    1.56390183842085   -3.40274606431910
C           7.37638417441624    1.83176713692286    0.56532694363883
C           7.31172655384094    2.65936777761016    1.67484995791444
S           5.70194208800693    3.33068351287684    1.86549720896886
C           8.29188740147151    2.96697310585910    2.65570957983358
C           9.68537268631067    2.87822911696814    2.64450963923822
C          10.51692086007287    2.57003654303934    1.48767902033929
O          10.11368944610324    2.38753475424720    0.35529542713044
C          11.96793260286224    2.52088478309678    1.79510941451408
C          12.51997351102090    2.83955440693102    3.06386159390372
C          13.88851509846754    2.72109782331392    3.07347872763079
S          14.52640076152048    2.21672850505083    1.55974785153293
C          12.94315655431027    2.16610998958972    0.89253767865628
C          12.77132015215199    1.74311661092102   -0.53333208287624
F          11.97296177430553    0.67761879990701   -0.66423643908952
F          12.28808246170858    2.71120098861486   -1.31494156127148
F          13.95557231127179    1.38789135525143   -1.06627780003472
C          14.81975864596977    2.97325637209317    4.21814761973256
F          14.58335022273087    2.17518645350887    5.26338234867882
F          16.09449286292056    2.74300181783564    3.85114585554063
F          14.77926778988394    4.23577862895078    4.65198523178423
C          11.68070077418994    3.24525629471073    4.21264751681632
O          12.14426429958994    3.54641099727765    5.29520273506547
C          10.25995922097348    3.23750148639690    3.89984770718749
C           9.31716170082458    3.61276945152572    4.84922082356161
S           7.70864571995355    3.52725899763347    4.20484611504059
C           9.58493495828258    3.99498820532599    6.14400135934119
C           9.81525015001236    4.31647328099660    7.29520948273374
C          10.21983558511344    4.63695472552614    8.57308379027691
S          11.90745949757124    4.53496506311589    8.99062416528744
C          11.54397517379798    5.02938253837037   10.62149446477302
C          10.18828458099606    5.26015497708562   10.79992583146731
C           9.44472804317609    5.03948586625375    9.64866433573668
C          12.54219903202379    5.14368900863794   11.56975179194956
C          13.44047763289580    5.22479934384385   12.38672927483181
C          14.45107471075100    5.31354608257022   13.32893297995692
C          14.21826484236549    5.62413631814666   14.63010821746979
C          15.22129623567742    5.71313810200141   15.62592928679853
C          16.67048149571807    5.51744157902478   15.47459127569746
N          17.35360429672589    5.65943333544867   16.57013398923891
C          16.43658469854913    5.95783335102786   17.54009791543523
C          15.07919496845929    5.99947503372624   16.96795093980571
C          14.11779392355845    6.30927852390618   17.98654075161916
S          12.49007856177427    6.46089840915248   17.82988285442793
C          14.91103604850622    6.45646824710408   19.19151407874815
C          16.34709588440327    6.23123877288501   18.87606867591494
N          17.10271685780354    6.36433394906146   19.99829171027296
C          16.25481726918017    6.64685903861536   20.95227688317348
C          14.86872186708194    6.71996681555746   20.52112696050193
H          -4.57202019637839    4.66038158528722   -0.15456178758553
H          -0.78494838638655    7.63775564245501    1.11709354887585
H          -1.31838516481801   10.55876943152980    3.62967993852133
H          -2.93801562784192   10.02822012476387    4.18348178452501
H          -2.78825400920559   10.99155832258044    2.69965900868316
H          -7.29818807977492    8.62687717814777    1.52004853088993
H          -7.91224604867876    6.97309345435800    1.28775509092713
H          -7.87373273434039    8.11370337001005   -0.09763396088572
H          -0.24028679157562    2.14801202980416   -1.96050385400301
H           2.12492208057614    1.26527695746836   -2.69685870543533
H           4.97433296538586   -1.42903809921139   -0.66124198365707
H           6.44368437415516   -1.51604858034005   -1.63684839985124
H           4.86444281138216   -1.54729914962511   -2.41981900318908
H           6.14701104703280    2.64091989220077   -3.44581737253853
H           5.80615831466191    1.11755094427013   -4.27307541760361
H           7.33938806637600    1.33821352122458   -3.42442119044306
H           8.27152753247879    1.31850827182880    0.26914857711993
H           9.77561712772125    5.57544678805868   11.74140136093225
H           8.37850688928272    5.16100416533123    9.57860900284320
H          15.45308882544480    5.11219697370381   12.97233911310468
H          13.20405758953052    5.81592032285269   14.95595025399988
H          17.17758125859635    5.27669412005537   14.55624202822631
H          16.60182980631146    6.80411224912539   21.95888092663333
H          14.03014325006577    6.93787987519934   21.15260247076736
