116
 SCF done       -251.263224332659          0.000567830368
C          -0.00436506501138    1.57723951387981   -2.53710295632778
C           0.33210533513831    0.84057456639633   -1.42863901442570
C          -0.19600304576387   -0.43292358000264   -1.13207789217903
N          -0.55069995508352   -1.48664602294876   -0.84599433583638
C           1.20429630184719    1.27570371041939   -0.41202238699087
N           1.89051325917920    1.57646811697113    0.45846128586889
C          -1.11045412495574    1.24848166672520   -3.44185246261094
C          -1.47190065262518    2.40663379980994   -4.15458312831565
C          -2.51320561291622    2.40822868073078   -5.05762721008049
C          -3.20476821577691    1.21588120998700   -5.26515348261278
C          -2.84329046047913    0.05841239439666   -4.56871890244645
C          -1.79927697903616    0.06462883645446   -3.65006265358193
C          -3.65170389012098   -1.19587427430857   -4.76370693932809
O          -4.71335987704819   -1.38596659866609   -4.23597018068296
O          -3.00098444108514   -2.06936325702515   -5.52486277611406
C          -3.70423956922250   -3.26890814267759   -5.82723241199208
C          -4.30563191255664    1.11314545839749   -6.25987915057418
O          -4.66176353818083    0.07207478636342   -6.75503695055726
O          -4.84148981254835    2.29826121995036   -6.54914732945084
C          -5.90932440435126    2.28606724451492   -7.48714246788955
C          -0.55850325537696    3.51193388101381   -3.78669596233978
O          -0.59119614813000    4.65907715541373   -4.16785823207327
C           0.45058570130459    2.90100242713613   -2.88304441725307
C           1.58640125293045    3.61532379471174   -2.61158111299222
C           2.82708832154165    3.18983374692822   -2.11216908976320
C           3.37680415082314    1.91355744531490   -2.01387518401698
C           4.63657631020663    1.89241968367958   -1.44794036212507
C           5.07881302137885    3.17239743395146   -1.10422612762420
S           3.95601823702096    4.39627511941175   -1.52675308813534
C           6.32955515670466    3.27577428048208   -0.45389177842353
C           7.00000659891155    2.09468351423977   -0.14350856283715
Ge          5.92496559966571    0.56212599982900   -0.77686797234994
C           5.13651079137947   -0.52246977503104    0.67830388786296
C           6.83813711169946   -0.47628852275715   -2.20049278019564
C           8.21059675848873    2.33494165079198    0.49620979605984
C           8.47690770209081    3.68307734091158    0.66591100234708
S           7.19236198352060    4.68552383604621    0.03366328540066
C           9.60282263702791    4.26604797138128    1.21629145598896
C          10.59467075645242    4.79816342285549    1.67595526668951
C          11.73070282504162    5.43295785621309    2.14358358642214
S          12.02740887707429    7.09953290276296    1.74114965095733
C          13.54095621134943    7.05926659918569    2.61367835349976
C          13.76369367704060    5.81641508508350    3.18165938867486
C          12.75020429896348    4.90337665808791    2.91585397801762
C          14.35491770891989    8.17108491078441    2.63762937329552
C          15.04524725043661    9.17382657515681    2.59046036363350
C          15.84749133379971   10.29371363806995    2.50851041700455
C          15.49545348976967   11.38486909245585    1.77556294768076
C          16.30568683108914   12.52962095982590    1.63069505535297
C          16.04203237364829   13.66913931503362    0.86512551246114
C          14.82886849026240   13.83521336027862    0.07704365556303
O          13.93961273311968   13.01246886920515   -0.02481659575756
C          14.76091615171450   15.13906455051824   -0.62565094157617
C          15.82959542264770   16.07162007977590   -0.62081269805549
C          15.53661910221437   17.19215242641177   -1.36534763227576
S          13.97151039774443   17.13487253771270   -2.06836357653894
C          13.69783659007157   15.58770432731334   -1.37145599445464
C          12.39140751325363   14.89681748872879   -1.62192889294938
F          12.53237186505136   13.76242202196750   -2.31171004643242
F          11.73018507019836   14.61595602394149   -0.49837488932077
F          11.57966987646515   15.68327095331993   -2.35340186168515
C          16.40846713227767   18.37701096442130   -1.62689927897637
F          17.53592892957757   18.06739479257508   -2.27135937625372
F          15.77389403815016   19.28280222067840   -2.38583773366762
F          16.77081980247381   19.03267196811306   -0.50833151561942
C          17.08301743795762   15.85538132130561    0.12542233541589
O          18.00752815946514   16.64725796566544    0.04939793384160
C          17.07905597196310   14.64494932183280    0.94153074139212
C          18.12401472587759   14.25120845360838    1.77373292069336
S          17.84989182494664   12.66837205101485    2.42208457894906
C          19.34703741330687   14.89792806394801    2.12799934682090
C          19.58231452755057   16.21507271806941    2.31688892795198
C          20.97883351295762   16.74173692144096    2.24232291851197
O          21.99914213578175   16.12074656685794    2.39263100789691
C          20.80904957651713   18.16387030524720    1.86329287711130
C          19.44334936195894   18.50560751970119    1.90794159355045
C          19.02653533661884   19.76950119732233    1.52561848463498
C          19.97831337807025   20.68710587023083    1.09193646455870
C          21.34307022437677   20.35154574970641    1.08242807633186
C          21.76504978457260   19.07454774312168    1.46591447287876
C          22.32846217250966   21.27374291607473    0.64487376934495
N          23.19086601183100   21.93473987889084    0.28402619683087
C          19.57422438645549   22.07069759731552    0.66144516054588
O          20.26308317162632   23.02860698028976    0.86267100197232
O          18.39605168798680   22.16548776059433    0.03861874553184
C          18.67626617931658   17.35025012477009    2.35295057763036
C          17.41333828526162   17.36264690043627    2.87191623610417
C          16.58182926284831   18.50232134600710    2.89235165336990
N          15.85674344398260   19.39091240742510    2.89515369928307
C          16.80294286099720   16.22588591920686    3.44290318738882
N          16.28082926054058   15.33216846625005    3.93809158074779
H          -2.78034859478846    3.30524037215571   -5.59348010324815
H          -1.54277398448466   -0.84364967270240   -3.12880033101558
H          -4.58119985166873   -3.03419917229222   -6.43279480709225
H          -4.02560870865743   -3.76196779921771   -4.90768579808934
H          -3.01079893068875   -3.89603723880477   -6.38120795522894
H          -6.28328274686569    3.30541898355570   -7.53393343830197
H          -6.69315801501228    1.60142908810379   -7.15733656801220
H          -5.54901937610449    1.96309073933737   -8.46610358221428
H           1.52178884514349    4.66511919912598   -2.88440644790747
H           2.87957054675327    1.03618843411199   -2.38918134793382
H           4.52028583044297    0.10798189164107    1.31201631887029
H           5.91338946144382   -0.98264270811835    1.28104790889712
H           4.51179382239220   -1.30534615318934    0.25920905317676
H           7.23235570509753    0.18881957359041   -2.96264176725463
H           6.13950460308177   -1.16562141211510   -2.66457045557833
H           7.65840074511273   -1.04901602193672   -1.77886129866510
H           8.89061511060601    1.56847452914192    0.82493941811878
H          14.64209344951023    5.59715447156786    3.76202969989992
H          12.74056839058899    3.88632448563958    3.26468234359137
H          16.79074747893235   10.26990469719272    3.04343714500864
H          14.55031130164376   11.39846750680512    1.25138238944580
H          20.20921944317456   14.24583329762332    2.23305535296764
H          17.98126599765022   20.03558261374002    1.56494140446306
H          22.81061276512461   18.80712720342206    1.44145961565916
H          17.94671259675259   21.31748511038217   -0.08783116624353
