152
 SCF done       -266.799233674832          0.000660117233
C          -0.17506806934678   -0.71333027979484    3.41577164694626
C           0.07247705344377   -0.18286334437476    2.17275413739166
C          -0.92852247421776    0.17608287408958    1.24828974319003
N          -1.68876496131638    0.52705289048195    0.46243548943263
C           1.35927626913658    0.01476124039626    1.63619859719534
N           2.37929883096691    0.17792881466423    1.13407411327820
C          -1.48766893357823   -1.18586941654308    3.86751930098303
C          -1.30339329740384   -2.05756229479724    4.95637434982639
C          -2.36507339099648   -2.68230123512380    5.57379930504924
C          -3.64927334931748   -2.42106412180977    5.09753904582675
C          -3.83973094172318   -1.55154445903450    4.01911904319979
C          -2.76392384450072   -0.93097983029672    3.39312624645874
C          -5.22931907490031   -1.34609448995910    3.48026464482767
O          -5.77388134059003   -2.12279527876663    2.74381162175942
O          -5.72332426922833   -0.17370806098583    3.86541064926075
C          -7.06126306574356    0.09402987469715    3.46243094337195
C          -4.85509293498550   -3.00772711116544    5.73833684744630
O          -5.96524926514356   -2.54984390739794    5.61855828835856
O          -4.57057170031361   -4.08621538282868    6.46855849246295
C          -5.67407532343364   -4.71152842675659    7.10937389605184
C           0.13908340821993   -2.12802154776833    5.28675709742447
O           0.67092919774007   -2.80799300906136    6.13488439005487
C           0.79341661061814   -1.14490141116566    4.38955768810971
C           2.08943167358976   -0.78468726109492    4.65880410014782
C           2.81277994596614    0.34725840418891    4.26235415409716
C           2.38118731046484    1.55817526652023    3.72135473947343
C           3.40015577500001    2.45788283791976    3.48505566596601
C           4.65027735570933    1.94355770621912    3.84348527920602
S           4.54981740731151    0.36985324755960    4.51201291997133
C           5.77884987868830    2.75971138782988    3.60846197079604
C           5.57715809063299    3.99440860346777    3.00195699691359
Ge          3.65013467414510    4.21705895342342    2.63556361837073
C           3.17775167188201    4.16060423526726    0.71365745408373
C           2.83104085935577    5.72072482464099    3.63982334484290
C           6.76870917034293    4.70068803722702    2.85091741629307
C           7.87713083132170    4.03571241212707    3.33692932263986
S           7.43593755921978    2.47889225615547    3.98708159459133
C           9.24698756625630    4.48473000394851    3.39112457861783
C          10.20635818684380    3.75480858569576    4.10192253472766
C          11.50640322566504    4.19243624036200    4.19904985694624
C          11.90904963283428    5.38026948385036    3.58471867542956
C          10.95541004171927    6.10961915240729    2.87165363187048
C           9.65417723148981    5.67073690405659    2.76894889027424
C          13.27631962649197    5.88836773576881    3.74106965199299
C          13.39104219365579    7.33769953552095    3.97546658827717
C          14.32748618034536    8.10158693658736    3.28157955105202
C          14.41329300539659    9.46440958116372    3.49163670209635
C          13.56747253048458   10.08594906550542    4.39584903592128
C          12.62642399910899    9.33714920421678    5.08275575290534
C          12.53306814304185    7.97469101825744    4.87004838406753
C          14.35971506139702    5.07718888273933    3.69152884715154
C          15.70642253725656    5.52068598883457    4.08230294333968
C          15.90966519325391    6.26522899437923    5.24312195854134
C          17.18327998814340    6.65238301484774    5.61222607550572
C          18.27334389553350    6.30356156011610    4.83138801804308
C          18.08347920443635    5.55335162868817    3.68285453194776
C          16.81165046675394    5.15791076465286    3.31413272182892
C          14.27106312267967    3.68617004525842    3.22487887902267
C          13.62094397974354    3.37587231918117    2.03007840467261
C          13.58034134946912    2.08012796874530    1.56562169700983
C          14.17062316649933    1.04370202372585    2.29500108427472
C          14.80896926617431    1.35395717831371    3.49843206787922
C          14.87692456224905    2.65559190931527    3.94372131947339
C          14.13014358586693   -0.31643333213525    1.80686146339006
C          14.06206607244472   -0.74522668214698    0.49854672764853
C          14.05770495263674   -2.13317400831259    0.36607704931296
C          14.10373211981225   -2.77153672180576    1.59991750810050
S          14.18195110299973   -1.65810337392700    2.91382982135913
C          14.08474826702753   -4.18431710171865    1.61401890236825
C          14.04795353344093   -4.84467363092093    0.38326279668130
Ge         14.04884073072632   -3.49842819345087   -1.05680443735551
C          12.39338390145640   -3.51492501692702   -2.15004904526338
C          15.71540563708659   -3.51877340367630   -2.12987810108342
C          14.00194173877170   -6.21702750593921    0.53698251432122
C          14.02391124694944   -6.64041473101230    1.86511750151658
S          14.07075771586037   -5.26180442326823    2.94771476261195
C          13.88443329867933   -7.97155455489195    2.28902616947248
C          13.95921656972351   -8.51809018694069    3.54087418958775
C          14.50484233708535   -8.03527678920855    4.78559471662136
C          15.61435678137285   -7.24183487306126    4.92887920555572
C          16.15108581023644   -6.84832080844446    6.17010291375704
N          16.61327880846607   -6.47589793496049    7.15273165833536
C          16.39736593686791   -6.82537665151484    3.83226588470320
N          17.08577340919913   -6.52543562953986    2.96372029763751
C          13.86320413857320   -8.79135761428075    5.86209272986430
C          13.15194622766059   -9.86403991669422    5.29172194044352
C          13.25147159100039   -9.79161705082079    3.81402847808568
O          12.80465179578532  -10.57024851052932    3.00258145471703
C          12.46850052630331  -10.77301388916380    6.07007000140832
C          12.48516328652557  -10.59850961706322    7.45341405907827
C          13.18664737851811   -9.53139449877599    8.02466097800268
C          13.88569186403686   -8.62354826459246    7.23669952905907
C          13.24177606971656   -9.41095622846742    9.52371433937092
O          13.99927773878360  -10.04166409710850   10.20973960922775
O          12.40614264776574   -8.47340300729281    9.95866789760497
C          12.32619542888695   -8.32561502868956   11.37140760781572
C          11.72644364032922  -11.49683915509075    8.36181347736562
O          11.42920066518967  -11.20635743604170    9.49496941438008
O          11.39834740088372  -12.65189787856760    7.78191791227533
C          10.67026631497016  -13.56635765027769    8.58977125893535
H          -2.20727765863779   -3.34891340981386    6.40675930615199
H          -2.94125641617388   -0.26443310786454    2.56437034178736
H          -7.27579391009396    1.11173691754574    3.77757274747773
H          -7.73618860504586   -0.61171684829514    3.94958059667051
H          -7.15845526907132   -0.00689549214759    2.37969601946428
H          -5.27872755432501   -5.59936463341852    7.59571829302867
H          -6.43479891139113   -4.98022648061106    6.37381727950423
H          -6.11802515720302   -4.03582898452316    7.84346217995523
H           2.59894621871664   -1.45492400673075    5.34546706755514
H           1.34164832657893    1.78224485473622    3.55667410267092
H           3.56749727199318    3.25184379273284    0.26571571811670
H           3.58627518507107    5.01888113236216    0.18914555034586
H           2.09808212918461    4.16492410910698    0.59979588299201
H           3.12845443837953    5.68778141462161    4.68334321944003
H           1.74863864351850    5.66040338873909    3.58213538350569
H           3.14612790882565    6.66975937617151    3.21718821915260
H           6.81547515029837    5.68157788010651    2.41207122006031
H           9.91322357495503    2.84053256968201    4.59781344486202
H          12.21784436943067    3.62504935353562    4.77954966382737
H          11.24900730458102    7.02987737628338    2.38700616675370
H           8.94443625246076    6.25181792975189    2.20107650950051
H          14.98101466996485    7.62160666442379    2.56797715546937
H          15.14170774761302   10.04565775889807    2.94550747753366
H          13.63868042592395   11.15069027618166    4.56124387896994
H          11.96186576818403    9.81703850579246    5.78640443798552
H          11.80071775834728    7.39053576283263    5.40965948960231
H          15.06425028347766    6.52684417620848    5.86215295996026
H          17.32742616043792    7.22621641701256    6.51587410122128
H          19.26754606411688    6.61012056983899    5.12045734669445
H          18.93020446257623    5.27329552741547    3.07329944030584
H          16.66477765609621    4.57464422350962    2.41578931818894
H          13.15745967483638    4.16710093057458    1.45907563556281
H          13.07139545730688    1.85834420695573    0.63991692684212
H          15.26999226680547    0.56217706368584    4.07130302973086
H          15.38929459966025    2.88430667519490    4.86716688666191
H          14.04446984660863   -0.06821729095066   -0.33758214296616
H          11.51620871575512   -3.50478948784838   -1.51081834019310
H          12.36431316815619   -4.40630277617911   -2.76911982629565
H          12.36352444865690   -2.64420489566789   -2.79782682421070
H          16.58101215348250   -3.54686518359301   -1.47549533177742
H          15.77556182735056   -2.63188565409664   -2.75328477631223
H          15.73465228119838   -4.39470292595052   -2.77098033586493
H          13.96734753633602   -6.91639073888218   -0.28044257555526
H          13.55488218123715   -8.66165577886849    1.51710115128821
H          11.92854936559980  -11.59151647903148    5.62101889413439
H          14.41807053249748   -7.80774268506026    7.69956417444057
H          11.90252979528868   -9.23168442327885   11.80793467183632
H          11.67808415400703   -7.47205228449721   11.55155143919732
H          13.31943659295090   -8.15610312710663   11.79185762835758
H          10.53092464339385  -14.45952589548338    7.98648725406664
H           9.70627782969214  -13.13759744414764    8.87173905082947
H          11.23096761902078  -13.79721211020845    9.49773913198588
