90
 SCF done       -179.818696759036          0.000834183485
C          -0.23207197355419    4.77625111153667   -0.94690164245061
C           0.75663634205708    5.26579092959571   -1.76103411420301
C           0.91016959096774    6.62763354059643   -2.08816946629013
N           1.10153821749536    7.72544226043422   -2.36314865906171
C           1.66905918011856    4.43366786844524   -2.44242846657015
N           2.38355243448757    3.77822649679843   -3.05731482743743
C          -1.41182580260924    5.52561637389034   -0.51278001459058
C          -2.43056616874092    4.60889827170500   -0.18990683843470
C          -3.68320815320353    5.02928025099647    0.20303079294787
C          -3.91932573239866    6.40034238004813    0.29076839085226
C          -2.90610909233598    7.31498840947196   -0.01540159980621
C          -1.64811485656069    6.88765371818161   -0.42545235811858
C          -3.21286798786264    8.78780563496201    0.02921104190121
O          -3.77648128610741    9.37238221503820   -0.85537092344357
O          -2.71515780334021    9.34458049452786    1.12821302301259
C          -3.00803387823283   10.72535597945558    1.30919035279922
C          -5.22555992901473    6.93999952727027    0.75177594730466
O          -5.36941277852692    8.05247211901274    1.19630248264512
O          -6.21523273248955    6.05585387966983    0.62647509792756
C          -7.50146731761835    6.50198047998149    1.03444196208880
C          -1.91172235865217    3.22733382412325   -0.32393879349311
O          -2.51318909010412    2.18994855912523   -0.16481061016192
C          -0.46924029772827    3.38698305808726   -0.63398904370321
C           0.36611375422422    2.31541473612807   -0.49241617140706
C           1.75945238972438    2.26291556349236   -0.30751023119798
C           2.53669560119501    1.11060587663078   -0.38868654871474
C           3.87670774720427    1.31708410152635   -0.11785656451156
C           4.14164593510969    2.64708741273068    0.21605308786948
S           2.73688296327528    3.63293847742077    0.18122617012922
C           5.47731212970339    2.99422869151380    0.51881770144766
C           6.43729812209870    1.98643320869915    0.46027583667457
Ge          5.56513925595467    0.30082881999438   -0.07986868583399
C           5.61873758883395   -1.10118960990355    1.32244013109904
C           6.12359085647590   -0.32466910179505   -1.87454626110785
C           7.70902558544813    2.45776292984092    0.76216411593572
C           7.73321626401637    3.81328320213228    1.04495111243555
S           6.14275942245730    4.52815455155475    0.94245535185298
C           8.84156242735400    4.57855939022848    1.35735371721223
C           9.83127645595356    5.23563896080568    1.61413843629830
C          10.96641355199300    5.97859524883446    1.88394131607307
S          10.92040184289309    7.71941525659590    1.89793150001376
C          12.63019835984253    7.78110490434794    2.24675170351630
C          13.17066555731003    6.51299438923339    2.34804446021900
C          12.23776843906428    5.50139740708851    2.14291185734283
C          13.29188465265862    8.98825217909524    2.36655293963928
C          13.86731448944531   10.05640891664007    2.44908020260459
C          14.56498379476659   11.25093815890374    2.53062182989727
C          13.97746429538371   12.46184995244735    2.37488396266195
C          14.67455754829489   13.69992189522746    2.43161920015795
S          13.79266418297656   15.19353954097861    2.26354619261521
C          15.23578315704669   16.14700163064313    2.42276362476814
C          16.33819302500513   15.31420147638816    2.57770962150425
C          16.02095668973347   13.95060975683644    2.59044235799259
N          17.71064012593423   15.74045861064945    2.54485555922963
O          17.95610068717503   16.78487580764335    1.98462392260250
O          18.52435530172011   14.97901751332985    3.00939177815101
C          15.16641766727200   17.56592225507578    2.48765754313766
C          15.96469643282492   18.45119103534791    3.17424549490510
C          15.46230352728538   19.78134720491157    2.95278850531908
C          14.28779580899714   19.67776067644259    2.08623129243053
O          13.53931435315203   20.50025155748381    1.62739816709294
N          14.16891026014199   18.29645363348623    1.87754528104425
C          16.25172590713415   20.61514602523215    3.67062333233307
O          17.19821653997426   19.93714876736018    4.34490052260752
C          17.06941675482375   18.56098997466865    4.09762983687535
O          17.75845755388335   17.74467245630087    4.64130754666905
H          -4.45724053545743    4.31709229129004    0.44144549064658
H          -0.88378133409175    7.61199885997641   -0.65798508863912
H          -2.43623563780811   11.04643598969724    2.17549725985003
H          -4.07765905126302   10.84922510634152    1.48492244425461
H          -2.72255310406967   11.29285819977207    0.42167157289592
H          -8.19143215693648    5.69727533757698    0.79514417956350
H          -7.77116125586748    7.41441680578845    0.49930960834667
H          -7.50760565927261    6.70831762155217    2.10673511191193
H          -0.13940844758652    1.35559319779545   -0.42840306169078
H           2.11597372917889    0.16061298404716   -0.66933125140590
H           5.29930483685786   -0.69656015867407    2.27770215133346
H           6.62793962630075   -1.48758310471266    1.42649864942520
H           4.96135523201212   -1.92212127827522    1.05328092965761
H           6.02686272762642    0.47985400359198   -2.59683719187920
H           5.49868449875461   -1.15408573235594   -2.19093317056419
H           7.15696498369159   -0.65726983483253   -1.85495214061729
H           8.59870772112991    1.85262946303517    0.77402096476029
H          14.21141051398397    6.34568125821702    2.56070509389279
H          12.46268137225376    4.45047124824489    2.17664342346381
H          15.62670983854992   11.17071457594040    2.72248096130570
H          12.91253852731957   12.51416599856585    2.19437537422129
H          16.77657390409989   13.19358062814852    2.69246588265126
H          13.45528901772522   17.89648480572487    1.28679506326241
H          16.24669512083814   21.68296090862640    3.79052526098567
