123
 SCF done       -228.524216008125          0.000886925717
C          -0.21914930718609    5.34398690695210   -0.70811426622181
C           0.75525812051146    5.80882470000012   -1.55387163790968
C           0.89810445968995    7.16040182954816   -1.92417440534304
N           1.07251934754625    8.25032403343947   -2.23957181585143
C           1.64886461550333    4.95720860716620   -2.23564212808818
N           2.34828993583045    4.28677565609492   -2.85198615641310
C          -1.37770687794771    6.11638406749263   -0.25615247186311
C          -2.39913608803308    5.22014135084419    0.11062226635459
C          -3.63570270444864    5.66369414941426    0.53444023206384
C          -3.85654761573990    7.03515917463464    0.59712539185113
C          -2.84138641561436    7.93074028961904    0.24668736505766
C          -1.59403095677630    7.47973653962813   -0.18569984956347
C          -3.15064356713786    9.38454957951359    0.31416347189522
O          -4.27243093260421    9.82501834264609    0.38095737389124
O          -2.05570685801380   10.14183963496831    0.28344568360309
C          -2.26720048608538   11.54615847830627    0.33149052318060
C          -5.16654110395430    7.56349467392584    1.11438554712652
O          -5.35175619519213    7.86275218394240    2.26318148325688
O          -6.09105829480154    7.56640753381211    0.15954191893803
C          -7.35263252760536    8.11323698818467    0.52323471381626
C          -1.90359688850419    3.82845588518106   -0.02299650062564
O          -2.51919292729020    2.80245618281748    0.15711743400016
C          -0.46920972987613    3.96365944336439   -0.37106965426352
C           0.35697474708419    2.88083289099876   -0.25018801721902
C           1.75247633727868    2.82125864936062   -0.09648248442500
C           2.52880806312579    1.67151598764411   -0.21795209515383
C           3.87335525475690    1.87398920632051    0.02800291480549
C           4.14547074233537    3.19677004578976    0.38747326786715
S           2.74011741297346    4.18284983488238    0.39873270058173
C           5.48541994574455    3.53531251985642    0.67684400977744
C           6.44411905965044    2.52947158021314    0.57257749817196
Ge          5.56200522968708    0.85998365630729    0.00279799999549
C           5.63999105453718   -0.58629224204576    1.35883309195565
C           6.08467027299091    0.28906622961783   -1.82095051184604
C           7.72116099055504    2.99126302056799    0.86438528193828
C           7.75196297930679    4.33761609176809    1.18955394793754
S           6.16105044897753    5.05567691537867    1.13682636069223
C           8.87116330645995    5.08546932952284    1.50469041911081
C           9.87685805126214    5.71990586886580    1.75747502775227
C          11.04267906710127    6.41710176136054    2.01667324924402
S          11.03738859316845    8.14110728394890    2.27594694984615
C          12.77267868570361    8.13981643304004    2.45678284465229
C          13.29212071375318    6.86561788803652    2.32895822286462
C          12.32183587347501    5.89877934311001    2.08303982252094
C          13.48234879043911    9.30644483146540    2.67721189057544
C          14.11632967155381   10.32962508779601    2.84845451977804
C          14.88325642198095   11.47282375010369    3.01740057087761
C          16.23749512397638   11.44784052136046    2.98486680144350
C          17.08088292251770   12.57885266942655    3.12457216464790
C          18.46511059105360   12.58122103582308    3.03791593415557
C          19.03237155939559   13.83861670056628    3.19292823241581
C          18.06908363697384   14.82306631751668    3.40752059926893
S          16.46556587578358   14.18728871840749    3.41318743285648
C          18.51305338390908   16.15238730907323    3.56854658159452
C          19.88997200162903   16.38788103484225    3.50919243608342
Ge         20.81415498861667   14.68307366849706    3.16387723038986
C          21.99257757763589   14.10669517878011    4.65258253211227
C          21.67735672878690   14.62869430268168    1.38140368912208
C          20.19404228106735   17.72288237895830    3.69112404713503
C          19.07808238072612   18.54091046342698    3.85375153469605
S          17.60682912389040   17.58713607696092    3.83168113790927
C          19.11595441298551   19.92281582097569    4.10349073307443
C          18.11347379479544   20.85298047299171    4.08263163549020
C          16.79020466856651   20.84363972141075    3.50869755857189
C          16.40912847098807   20.18812493873723    2.36526835311878
C          15.11796380124192   20.25609756287620    1.80678387999217
N          14.07529810349402   20.24944355127538    1.32655347195547
C          17.31396548529899   19.45663681260124    1.56865380045203
N          18.03689517288951   18.90637253075704    0.86645719831824
C          16.02324885320490   21.90149778243308    4.16813635177093
C          16.90848667153162   22.68524581135416    4.93264790662968
C          18.27215465199458   22.10972419672163    4.85223948506335
O          19.28862480579077   22.54046886796307    5.34822745909761
C          16.47544023785091   23.79100742472778    5.63168240225329
C          15.12072454243422   24.11663652361588    5.57522978331115
C          14.23562773813142   23.33621346151710    4.82402610429746
C          14.67830392277565   22.22726678913403    4.11111974574654
C          12.79307316633674   23.75333878868785    4.72548221126518
O          12.39953776166232   24.59611278307552    3.96598999535819
O          12.02718870571786   23.01845246652503    5.52562331728074
C          10.65082842759831   23.37656043388349    5.55965298271749
C          14.56293627517426   25.26657192024595    6.33286092164516
O          13.39031884150020   25.39659589723951    6.58665084779263
O          15.50409172365242   26.13223836770760    6.71233516263090
C          15.04799871013937   27.26668321323269    7.43594216286416
H          -4.40537634402587    4.95877379565723    0.80827419156762
H          -0.83268192295802    8.19664908638244   -0.44655477695212
H          -1.28077914522497   12.00089650714045    0.30124489575975
H          -2.79075958613041   11.81794013335147    1.25024091687405
H          -2.86600082261091   11.86761965410607   -0.52292829755472
H          -8.00143045991072    7.97979525210788   -0.33831787875254
H          -7.23560243136436    9.17239449470874    0.75857891071373
H          -7.75411759400280    7.59481872119665    1.39636087032477
H          -0.15512759783376    1.92532328992436   -0.17779762096340
H           2.10253832182330    0.72754706112783   -0.51045482790707
H           5.34599016777785   -0.20936361275324    2.33338828185704
H           6.64836766234669   -0.98259746100268    1.42708475011075
H           4.97009452921540   -1.39387629441538    1.08015658585563
H           5.97878582347978    1.11732908880478   -2.51464417645417
H           5.44972997977394   -0.52655948552130   -2.15286224068337
H           7.11659536342082   -0.04844479689639   -1.83130955339247
H           8.61030439191486    2.38557793040852    0.84246076534389
H          14.34473095052580    6.66177876314452    2.41249227002887
H          12.52671753968584    4.85133547864245    1.95110137445837
H          14.35413939531448   12.40566865342002    3.16851768393750
H          16.74343694163118   10.50369398405531    2.82725114392881
H          19.03133738968940   11.68321823145724    2.86001460175672
H          21.46253990048576   14.15958624757610    5.59839116923713
H          22.86664569954412   14.74836456418987    4.70566341108381
H          22.32381770461527   13.08506191854804    4.49440630962277
H          20.99061567794198   14.99369391002083    0.62406436511553
H          21.96831204522250   13.61289575766668    1.13183111980752
H          22.56458877505589   15.25431872929463    1.37753034455625
H          21.19328162468089   18.12262680125637    3.68057507156576
H          20.07374407823796   20.29911584647763    4.45237590533477
H          17.16451050328214   24.38577564941773    6.21004994389421
H          13.97658757326186   21.64163262517473    3.53870212796408
H          10.16439788352228   22.65193929154863    6.20723067832542
H          10.22602277722953   23.34656064723982    4.55434859830313
H          10.54721991318323   24.38573457034237    5.96196946374455
H          15.92964447551438   27.86594148915825    7.64694932202681
H          14.56252240417014   26.95487377312340    8.36293228059451
H          14.33146058334682   27.83267499341737    6.83754619245645
