132
 SCF done       -246.391766571204          0.000818172127
C          -0.04222272586306   -2.40499926815781    6.27206060265056
C          -0.42331505278187   -1.48610234310442    5.32745629042801
C          -1.32631832594835   -0.43261763647766    5.57217994306632
N          -2.04255038629940    0.45311499290443    5.71595586440344
C          -0.03318893222631   -1.54882536061733    3.97337589449361
N           0.21317541199694   -1.59320475700303    2.85244914033455
C          -0.67165939512670   -2.56484868412167    7.58367788411315
C          -0.41979542066610   -3.86920952634465    8.04852022442808
C          -0.93153530604806   -4.32291835186097    9.24772636418645
C          -1.71512747397116   -3.45440676812194    9.99974630416458
C          -1.96049247716591   -2.15379127907230    9.54824167511636
C          -1.44153120937179   -1.69780789653517    8.33638840028334
C          -2.82949965415598   -1.28378379652557   10.38568091233160
O          -3.53488612598338   -1.70039387583394   11.27216823246343
O          -2.75103548607110    0.00090117400777   10.04181398292132
C          -3.56974377847453    0.89496370708074   10.78292375789748
C          -2.24650162388410   -3.88663512795312   11.33904272602265
O          -1.67479438913469   -3.68001367064974   12.37533369082489
O          -3.36679487834605   -4.58910858947379   11.20370343927175
C          -3.99706386413510   -4.98712319283483   12.41475769595156
C           0.44194978436455   -4.58145991484045    7.07280404873759
O           0.81408955175667   -5.73184577064699    7.11532401057499
C           0.79401230649537   -3.56241516649508    6.05639007668175
C           1.80521040881417   -3.79621689953633    5.16654503308908
C           2.55074311803407   -2.85442119943339    4.43234397793667
C           3.23723012144508   -3.08056772542802    3.24495014918217
C           3.83870964686798   -1.94797746341070    2.72472573924943
C           3.67024108760427   -0.83957302379961    3.55567359402567
S           2.74527710026068   -1.19260950972937    4.95777238773329
C           4.20867583205450    0.39272733029826    3.12871226007098
C           4.81775430546392    0.43857249744662    1.87835827249378
Ge          4.76395102985575   -1.36790671706513    1.08438432167219
C           6.55570511719998   -2.18603190432614    0.83814476747390
C           3.58735150968468   -1.47700323978618   -0.50469498703103
C           5.23421772861290    1.72431821963764    1.54850060575825
C           4.96425776144925    2.65641056756791    2.53415682996210
S           4.17937663430967    1.93007998166023    3.90775025502409
C           5.21063000176216    4.05861775390697    2.50006521749984
C           5.45734001355116    4.84227766041918    1.41034834644986
C           5.58717787083656    6.21761393904371    1.71364482842493
C           5.46583093944050    6.48933580150505    3.10104741809127
S           5.16115336840591    4.99940522875444    3.97464580872718
C           5.56538234566104    7.78048260720557    3.59328501883315
O           5.50488069035362    8.20940613661288    4.88055111180891
C           5.40475940900225    7.27874003038672    5.93203816588224
C           5.73775942319413    8.80448893569987    2.63871129439753
C           5.81958263273882    8.53599966398150    1.24761758182112
C           5.77362759979058    7.24006576927093    0.76018017195450
O           5.86986610025292    6.80737372636386   -0.52318303562092
C           6.09912674224241    7.72609686673063   -1.56550268519634
S           5.95298920231195   10.04079501832997    0.35730454563792
C           5.91318108092418   10.98186160399641    1.83206508113017
C           5.80997822907258   10.18543559224791    2.93578564874177
C           5.96329812270670   12.40369832129315    1.77376393741127
C           6.22871277486439   13.28577323382811    2.80605645226383
C           6.17627090006183   14.61986153177772    2.41622358498338
C           5.85496227792095   14.75783091009841    1.06871446749250
S           5.64185583364562   13.23928155472590    0.28104303705332
C           5.73273528864568   16.06356772826239    0.54837271551379
C           5.96847051028756   17.13452674578101    1.41471147256404
Ge          6.45463097551958   16.41608458832345    3.18532569642976
C           5.15623750942612   16.89460019352325    4.60686178331821
C           8.34563583307687   16.75902824406080    3.66948007844046
C           5.76464179568132   18.35234329881443    0.79423422119964
C           5.39821650282991   18.25126141298681   -0.54684369128616
S           5.28024988701782   16.56852176659338   -1.02697753720106
C           5.02656570456440   19.32397475561936   -1.37330320912292
C           4.74895610794438   19.34550886533433   -2.71306596470061
C           5.05315141187854   18.42636155737084   -3.78216987801025
C           6.18167479806618   17.65483262092766   -3.89004209428048
C           6.47106276808279   16.83057865707575   -4.99478035688434
N           6.74255536741923   16.12712432321952   -5.86051916478261
C           7.22296473210409   17.69107876342140   -2.93956043490332
N           8.10871530548715   17.74359895778312   -2.21096829225372
C           4.10688946904162   18.69538455556219   -4.86608863095070
C           3.42142421956229   19.88996990785813   -4.57605449126531
C           3.85802766174304   20.39956102167797   -3.25246106876230
O           3.51731082967521   21.42310427180809   -2.70453834520112
C           2.48194333449962   20.41469412782371   -5.44040104942873
C           2.20459089884285   19.71894055547161   -6.61216321275028
C           2.87411936131632   18.52555260795849   -6.90082648564548
C           3.83781687423272   18.00778212587335   -6.03432524419369
C           2.50559228141423   17.81497267322198   -8.15453548393055
O           1.53905576987651   18.09524596287177   -8.82168472216495
O           3.35389191247775   16.83379025556062   -8.45641329634082
C           3.07634072734461   16.11405447839567   -9.64950418542577
C           1.21511231960478   20.27828463772575   -7.59822258474350
O           1.51566041213165   21.00773343116326   -8.50343336795896
O          -0.02640523806194   19.93130261657213   -7.26686182255786
C          -1.04614219699231   20.34329525429051   -8.16881089521438
H          -0.72646782429891   -5.32721034188465    9.58471227864603
H          -1.64619412540332   -0.68824048988971    8.01975780986637
H          -3.36159063686304    1.88789147101359   10.39345716559215
H          -3.32739185429780    0.83683338999271   11.84612562725852
H          -4.62344989621278    0.64198202408932   10.64809497720637
H          -4.82487060494774   -5.63104017409499   12.12987628529185
H          -4.35925806680551   -4.10335388295145   12.94260274046676
H          -3.29043344961466   -5.52099218760717   13.05324571489900
H           2.10640820104095   -4.83409859327325    5.06086880339149
H           3.23749821108321   -4.04260079022475    2.76268624874077
H           7.13888814630319   -2.10438498653890    1.74985750842897
H           7.08969949520206   -1.68676297133129    0.03563374994670
H           6.45176448498286   -3.23600231399901    0.58257857388948
H           2.60561334057950   -1.08312576839182   -0.26058292156295
H           3.47942430043933   -2.50983929682468   -0.82097178543476
H           4.00380098097894   -0.90327791989962   -1.32707237247804
H           5.72537460515646    1.98096989462130    0.62681469906318
H           5.51206442221956    4.47143433230661    0.40437155866209
H           4.46497884000570    6.72206020603328    5.89411368344321
H           5.43207795799560    7.87307195274005    6.84460534564889
H           6.24385588490194    6.57833518067672    5.93245132489763
H           7.02871902119309    8.28167934706185   -1.41791200717584
H           5.26837000109893    8.42755879149480   -1.67809468631895
H           6.18187000455154    7.12121768597891   -2.46766313533879
H           5.75365356189089   10.55697528322708    3.94145042068254
H           6.46345604585085   12.95793488805465    3.80301214510341
H           4.14143247283211   16.70173785905418    4.27344087533134
H           5.24829834266841   17.94748120835886    4.85515822372388
H           5.34698565729852   16.31102840227026    5.50212605512853
H           8.99532101031757   16.49982245851246    2.83940005666449
H           8.62774599959619   16.16639841753619    4.53438589544491
H           8.48617724871411   17.80888447197739    3.90750799565532
H           5.88651134451905   19.30603089993135    1.27802596046059
H           4.81868605351608   20.25418753564158   -0.85213101587158
H           1.97892876191608   21.34001557691392   -5.20562082531798
H           4.33288804737303   17.08327528915278   -6.28332017024336
H           3.86789861328174   15.37613660508314   -9.74697924480851
H           3.07149103138412   16.79067217429877  -10.50609258272180
H           2.10102291752969   15.62818123362741   -9.58030319749928
H          -1.99177199090027   20.10200529614589   -7.69028436841782
H          -0.93926566789473   19.79963984824226   -9.10890508016859
H          -0.97056153366394   21.41475537468918   -8.36397913927542
