75
 SCF done       -136.314402844561          0.000314515489
C          -0.04500661208932   -2.09919788718989    2.15049200721613
C           1.36163975569691   -1.77664557909362    1.83914024209275
N           2.24924431352587   -2.62538788129092    1.50701407874670
C           3.45818989140252   -2.04406308617798    1.25706695718194
C           4.67973665506542   -2.55863015016890    0.90255671114086
C           5.02932701257057   -3.92788878896404    0.60364345120772
C           6.17266276386672   -4.55843340991266    1.04010129797077
C           7.13484551285838   -4.08027409707096    1.98121081705309
C           6.93756461001589   -3.19796138302084    3.02161814123184
C           8.09320015541556   -2.92905851020143    3.75896411288828
C           9.18612660015515   -3.64317175275439    3.26402507257846
S           8.79100519806358   -4.63254059460292    1.91849478604234
C          10.41677979982111   -3.42431700312618    3.93958171228101
S          11.97403347889599   -4.11029448174903    3.70305837877665
C          12.60667557061326   -3.16313079703249    5.02574893411449
C          13.99327989054317   -3.25831974515420    5.42330015523915
C          14.40731027804596   -3.40679032490222    6.72761671965252
C          13.63947622433066   -3.65965612668490    7.90399218980351
S          12.00962764238532   -4.30874166741769    7.86521599898968
C          11.90713110099251   -4.40813398123852    9.57832759038345
C          13.05457646022596   -3.97070220213697   10.16920733502151
N          13.44227611683893   -3.84784418286452   11.47167637597563
C          14.62057121772770   -3.38395976073064   11.58078513173476
C          15.32409658241674   -3.13198632962098   12.85396941146328
S          15.46332690742805   -3.01664760787076   10.03532543954680
C          14.04165103509948   -3.55711594244407    9.21110970342542
S          16.15618509745891   -3.36400719660854    6.88541443833824
C          16.34057802418984   -3.17812459799158    5.17115795875076
C          17.54046609717125   -3.06595261233247    4.48193580940780
C          17.50457637235925   -2.91420938274278    3.11468582583732
C          16.27186136801320   -2.86532308187110    2.44195188826917
C          16.25784485577953   -2.69638487045237    1.03818349295197
N          16.25030197773534   -2.55750683771372   -0.09976102627223
C          15.07183920476378   -2.97322294758029    3.13013015072784
C          15.09497573375802   -3.14147581075225    4.51255263918522
C          11.63779122315848   -2.36546387089345    5.58235922630513
C          10.37952314201682   -2.49978097383162    4.98207707419487
Si          8.63646902530109   -1.84953335920862    5.18874866970938
C           8.45198462512793   -0.02360965235499    4.81443617284859
C           7.88753221756335   -2.33509683867790    6.83550079012681
S           6.34909943669816   -6.16652527999478    0.36901999000995
C           4.85328749967293   -6.01024343764526   -0.49584735825290
C           4.27892575968939   -6.96356222436606   -1.32593194592867
C           3.08267454786233   -6.67063523133825   -1.94008699126733
C           2.46890236156749   -5.42426816822015   -1.72966950483944
C           1.23949097442601   -5.13824196451509   -2.36579285752682
N           0.24057912577179   -4.90690554568694   -2.87915804733404
C           3.04603694597052   -4.46732267787971   -0.90713205314617
C           4.24886367955168   -4.75705201396070   -0.26939416655686
S           5.84089469836173   -1.26242279759161    0.75350667894082
C           4.68747356950541   -0.05350331781806    1.19495409707644
C           3.47801612166522   -0.61541237046404    1.43029962097271
S           1.90199355507002   -0.06465052537184    1.90754954870642
H          -0.18150687749102   -3.17717293450435    2.13460221304437
H          -0.70403795562589   -1.64208202596794    1.41271406294892
H          -0.31533442208994   -1.70689665765916    3.12981373277769
H           5.97284758327732   -2.78316371435815    3.25283138957542
H          11.01526213280792   -4.77542850767184   10.04215333653311
H          14.68683063015818   -3.42298100626453   13.68447609620962
H          15.57551074489181   -2.07551922721003   12.94001106104306
H          16.25254140525318   -3.70030220021225   12.88822758394380
H          18.47783494110512   -3.09838661403239    5.01447412748154
H          18.41927313892226   -2.82738703015933    2.54841708655021
H          14.13495076205220   -2.92840946610157    2.59628188256240
H          11.84434052797399   -1.68960684758249    6.39358968864378
H           8.88269892982258    0.24268755443352    3.85106815640195
H           8.93913453929331    0.59461682079068    5.56562992079530
H           7.40561314732423    0.27403641062474    4.78905787395379
H           8.00649267823704   -3.39710730028864    7.04153077103150
H           6.82213006640052   -2.11785380108538    6.87398477830385
H           8.35100480997595   -1.79641120259544    7.65956041341950
H           4.76643259969319   -7.91318680244696   -1.48137132231808
H           2.60791160981302   -7.39138255161608   -2.58828191950670
H           2.55997225519635   -3.51758637969751   -0.75448562888486
H           4.98378135094238    0.97386434484345    1.24200182240656
