122
 SCF done       -236.217360439294          0.000828672898
C           0.90292401315068    0.36405906418218    4.23533008867993
C           2.12149999681328    0.33566155838274    4.85685107663072
C           2.49159746451597   -0.61862539818858    5.82721154896731
N           2.85101180834370   -1.36866244325165    6.61781094433337
C           3.11359978449208    1.31887535038040    4.66626156157463
N           3.93596252702485    2.11304744341478    4.56153711224811
C          -0.25068442691506   -0.45779617373256    4.60004662918564
C          -1.42005115497024    0.15634879993573    4.11314007430805
C          -2.67237805116831   -0.37924054998216    4.34089812033271
C          -2.75969683339036   -1.55887755972212    5.07127905906062
C          -1.60099207978417   -2.18122109053752    5.54739607548411
C          -0.33773294878987   -1.63723239714112    5.31732579302898
C          -1.76690042651295   -3.42783202899417    6.34447114182925
O          -2.81471222407111   -3.76778471685371    6.83745893524685
O          -0.63292889543880   -4.11488408476064    6.45885298401139
C          -0.70391398903490   -5.31696172041081    7.21346024147912
C          -4.09694675163038   -2.21414507824678    5.28747203372977
O          -4.53327705119690   -3.07583044866874    4.57320918288116
O          -4.74559260948388   -1.64975109908178    6.30053538095417
C          -5.99730779631874   -2.23458496577125    6.63911290922129
C          -1.05455678010971    1.37425583260193    3.35490529451188
O          -1.79324549732919    2.18460263427367    2.84761992123112
C           0.43492307752312    1.36692744485395    3.30554156346991
C           1.06105665245309    2.17792725303469    2.41168149056217
C           2.38724205983909    2.13754416372880    1.89425269472953
C           2.93722330821757    3.25495066828305    1.27257870841329
C           4.22142470654718    3.29032019419379    0.74076250245909
C           5.07770530292926    2.19440948141410    0.73695629668164
C           4.53800538243016    1.00634266457465    1.31063068031789
C           3.21403222151985    0.98122966579672    1.88532663454067
N           2.99195829353834   -0.25298874255864    2.29202985302872
O           4.09429677203864   -0.94764297929840    2.00337843654182
N           5.03081683488627   -0.20936860275310    1.41615117050035
C           6.38620299379876    2.23054586735799    0.18820309044742
C           7.32998695870569    1.21345915028267    0.15270466922799
C           8.51264281051804    1.57887517864175   -0.47264204604734
C           8.47873642358914    2.89724439882244   -0.92785985103767
S           6.99360092148119    3.68357325136332   -0.57543890540787
C           9.61788305360379    3.39212234204677   -1.60114444947035
C          10.70124825186847    2.53505668642771   -1.76792829908347
Ge         10.26646963077865    0.79838577693722   -0.92978531692963
C          10.15249970012113   -0.69792626168824   -2.22502875540454
C          11.38183753659353    0.40182081706441    0.65953383044600
C          11.74523928617399    3.14699013570721   -2.45542498601338
C          11.47522591368524    4.45460646852233   -2.81342170377461
S           9.88776494194685    4.94982538159299   -2.28847353222377
C          12.30828575591878    5.36693937623647   -3.51380901227789
C          12.04307939409616    6.66922708522237   -3.83011037130819
C          13.08654207478976    7.31299443978293   -4.52875973049029
C          14.20023537604797    6.46493737082794   -4.75871042562306
S          13.88683979619355    4.87403372260429   -4.08420856375409
C          15.33105650559810    6.92367166472843   -5.41590096407371
O          16.46915445001515    6.26023994630374   -5.71605103651670
C          16.64402040285668    4.92179391785516   -5.31381188816987
C          15.30503482991998    8.27270131239048   -5.84103735272626
C          14.18482466696859    9.11779758872746   -5.61412364096179
C          13.05930934957664    8.66049931406790   -4.95355187044878
O          11.91754858820878    9.32453570819462   -4.65213873124832
C          11.83325167084828   10.71637189314122   -4.85229765333143
S          14.49431721750945   10.71076475170863   -6.27217105268515
C          16.11010708860700   10.25061627752614   -6.78161534857637
C          16.35365698890319    8.92822033921283   -6.51308680110648
C          16.97824225540995   11.14290962161791   -7.45592137026384
C          16.94155522176918   12.50360286532987   -7.47877445866968
C          16.23500982369623   13.45738956865369   -6.65204817551561
C          15.94239137672702   13.31061705982218   -5.32208264124196
C          15.29413228938731   14.29048138119209   -4.54423713114550
N          14.74582809635973   15.03871928658462   -3.86821109582571
C          16.34874703615298   12.19277119099937   -4.56128510847902
N          16.72032419763715   11.33658658891908   -3.89306697521037
C          16.16327403328981   14.70913315243918   -7.40316342740854
C          17.00527997271698   14.60987096112557   -8.52741142313655
C          17.60229210801321   13.25297932082312   -8.57990008755016
O          18.41125767058844   12.82765997486288   -9.36968024221233
C          17.17412927429417   15.66583510214933   -9.40108558138344
C          16.48464246883535   16.84654870415381   -9.14760129918072
C          15.64000239453677   16.94757049496844   -8.03739198240858
C          15.47337319430553   15.88149431898907   -7.15439125133804
C          14.95588232286715   18.24952454781085   -7.80475651546707
O          15.30379710114115   19.28540448649124   -8.31614788080154
O          13.93002013014218   18.14196030635748   -6.96300145304292
C          13.22766192205296   19.34417779693910   -6.67733058509035
C          16.58346189927768   18.00118730762769  -10.10755583849978
O          15.78909749328783   18.19830016978342  -10.98698337299323
O          17.69373014356497   18.69995198854416   -9.89916885243908
C          17.85617537599398   19.86140471833178  -10.70443074350371
H          -3.55452922062997    0.10915377029320    3.95659195886719
H           0.53466923545322   -2.14557803299101    5.69394422250806
H           0.27890097225644   -5.77540100049140    7.14355299591627
H          -1.47021111747465   -5.97678281192273    6.80151095112827
H          -0.95167823682919   -5.09563417510324    8.25358885790261
H          -6.45660813244156   -1.57137717108045    7.36743329993116
H          -5.83051364183589   -3.22363084465227    7.06917944368561
H          -6.62397517747312   -2.33154598618075    5.75029437442880
H           0.42147760686416    2.94160856557029    1.97750430923196
H           2.34388076589114    4.15671198831139    1.23225337528753
H           4.57329000661368    4.21565280919844    0.30822731040303
H           7.13174644938840    0.24545791951046    0.57701301519531
H           9.71402141883319   -1.56753183981041   -1.74531752076240
H          11.14316115374863   -0.96232409365734   -2.58207729293967
H           9.53657633564262   -0.42047784813673   -3.07466157950503
H          11.41354665905859    1.25980872019161    1.32370799299598
H          12.39494303258553    0.15605603405483    0.35629286684790
H          10.96738871282644   -0.44295221035884    1.20091343103844
H          12.67965262251505    2.66863995409462   -2.69453465646144
H          11.12705772287013    7.16760836734389   -3.57073014043153
H          17.63711397844640    4.64502121444187   -5.66484586170499
H          15.90219073251376    4.26222097655810   -5.77164202657639
H          16.60365186798222    4.81886568067841   -4.22660621931044
H          10.85585092182608   11.00215947053965   -4.46617145155727
H          11.89175204696169   10.97901588857805   -5.91203968387816
H          12.60963531780883   11.25034365115481   -4.29819097976803
H          17.28078957595517    8.43995680924209   -6.75161684930541
H          17.71951801029063   10.68110296411726   -8.10041448683670
H          17.82501976910975   15.56960651049606  -10.25631309262687
H          14.81372039820968   15.99087409923166   -6.30903216013070
H          12.47203101858711   19.08424929983470   -5.94083999756604
H          12.76359662284338   19.73444217508122   -7.58536428620617
H          13.91159956027017   20.09677426088754   -6.28015940379941
H          18.85258221753248   20.24058433519378  -10.49374364610473
H          17.09769148993950   20.59831808247936  -10.43512859169991
H          17.75080623294314   19.60888551211763  -11.76134642690789
