128
 SCF done       -295.398926016201          0.000431515119
C           2.75105880341027    2.23487236673846    5.43348565481272
C           3.85178140921443    1.74961313294226    6.07430318016468
C           3.80703724484112    0.80350475070487    7.12727342456821
N           3.86152103160245    0.05199072100590    7.99151086420930
C           5.17929095456074    2.17070592555514    5.88870774221349
N           6.27993333435417    2.49028914574934    5.83968890430178
C           1.38049820038689    1.88600218376623    5.81730924365135
C           0.48263125407282    2.81491723287437    5.26092607164578
C          -0.87968697459165    2.74428480793959    5.48427690102729
C          -1.36098627126745    1.71586863875522    6.28442314872959
C          -0.47826661003067    0.77150987281855    6.82013253279742
C           0.89389078398720    0.84503474680642    6.59017849681609
C          -1.05374790141443   -0.30710388578540    7.67444781898392
O          -2.17048405601883   -0.26781358751752    8.12878736635943
O          -0.19695181683520   -1.30118229521875    7.88406119325537
C          -0.66454726624608   -2.37160717639578    8.69444715724987
C          -2.84306580862612    1.56014005601781    6.50570069363964
O          -3.54289934040970    0.87859922028194    5.80780746216137
O          -3.26083617847793    2.33457762819004    7.50018133627379
C          -4.63645332543549    2.21006229849987    7.84305874379485
C           1.22300747426060    3.74284186310605    4.39333034517390
O           0.79847824490899    4.66479104443924    3.74342573007084
C           2.64344126368427    3.23699935084290    4.37783606517505
C           3.33795566407048    3.58996383998559    3.27776668303268
C           4.60161209215352    3.21368022793881    2.64323121864937
C           5.86808675079223    3.59750212637844    3.26047349452870
C           5.96671034435465    4.76080483198515    4.03301449631470
C           7.13652158573275    5.13744558131115    4.67794574792065
C           8.28047717128017    4.35552673413837    4.55121089324757
C           8.22257217682441    3.20096196812584    3.77582659507822
C           7.03592640208871    2.82906959239875    3.16104302802326
F           7.03268024088727    1.68854787109310    2.46435226288172
F           9.30759928431573    2.44287837141332    3.62139114204132
F           9.41199856039467    4.71229635541039    5.14745277718369
F           7.16445723015643    6.26060274249225    5.39416774915070
F           4.90245283095035    5.57723950223714    4.12244355919331
C           4.52938337024045    2.65276343905716    1.38399170590523
C           3.28144873139979    1.97699757861202    0.98232664432136
C           2.72112300184401    2.11428429380658   -0.29214604813237
C           1.52423387298157    1.49817701287187   -0.64196211938465
C           0.84604603893599    0.70664975909479    0.28005242369581
C           1.40601065663636    0.51167236568250    1.53861490647372
C           2.60971751992209    1.12327359499343    1.86456999647829
F           3.14423028144048    0.82428998431006    3.05198358986688
F           0.79762983543324   -0.26770913859567    2.43393786056428
F          -0.30457119823287    0.12709022921750   -0.04598949776216
F           1.02960062743806    1.66363740438828   -1.86804886549566
F           3.33000466655541    2.84322864103782   -1.22782555170768
C           5.60474113220747    2.71269693121341    0.42674474025171
C           5.75958300760642    1.58345428592892   -0.49799211513098
C           5.57707200522770    0.25909944630084   -0.08268467081010
C           5.70100078044899   -0.81712738056036   -0.95394992168344
C           6.01488987464722   -0.60005681405658   -2.29062486299999
C           6.17311030365338    0.70831915063345   -2.74115145803620
C           6.02802701661507    1.77097186262685   -1.86252032067226
F           6.14462371191309    3.00360803090979   -2.36070698676476
F           6.46291459237304    0.93963040611143   -4.02357285657258
F           6.15686805602925   -1.62561394029411   -3.12961766366431
F           5.52432369409218   -2.06049289001238   -0.50265441177771
F           5.28727888329858   -0.01240590968425    1.19410281718363
C           6.44511188263775    3.81906873270461    0.34051516698381
C           6.06833043326428    5.14749496108359    0.85501308253836
C           7.01341444644173    5.95877673362337    1.49248863205667
C           6.73692081971007    7.25679399925048    1.90187254751917
C           5.47061783281428    7.79324421860450    1.69181830736648
C           4.49899940721036    7.00468445629975    1.08187154214210
C           4.80126826625297    5.71019363572908    0.67480587101520
F           3.83064404678152    5.00701336461315    0.09090343327641
F           3.27882868764900    7.49318571148287    0.87433315885685
F           5.19286735438320    9.03599592416715    2.06867286018314
F           7.68313100764936    7.97715722194154    2.50099144235896
F           8.23016148258777    5.46537495299234    1.77302631211120
C           7.70641656446240    3.71651478491016   -0.30345224655081
S           8.39924235994189    5.06599671140347   -1.19649094955785
C           9.70573085714885    4.08060797767620   -1.68751362198464
C           9.62640170325831    2.77701040496688   -1.16552676739997
C           8.50413520890479    2.57454352688641   -0.39583290238014
C          10.79934055068641    1.94473414930371   -1.62237730902916
C          11.65274886352637    1.48530685068660   -0.43697112154250
C          10.32902098605994    0.74663004184188   -2.45345924394791
C          11.53418170340666    2.95316960584990   -2.47375918313567
C          10.86288368416245    4.18504721389175   -2.47575244075459
S          11.66507270982744    5.36135202837002   -3.43392564253736
C          12.91359944170042    4.19936976888298   -3.84104786622504
C          12.68352911846944    2.96281633424724   -3.23979392216016
C          13.96811053496147    4.60694301492882   -4.68848090431879
C          15.00177826930674    3.81237071647310   -5.07673973987564
C          16.05801163182571    4.21412636067407   -5.92521644771736
C          16.29290492109644    5.43148400143060   -6.54938846379778
C          17.44996654619320    5.45067749505925   -7.31549918524762
C          18.12231867223715    4.23081945226716   -7.28429754639443
S          17.32231415047100    3.06432235840086   -6.31128459387036
C          19.32555020802577    4.12341374260694   -8.02795999665327
C          19.75233641389593    5.23568095112978   -8.73535559203086
Ge         18.46160078761449    6.69835420968769   -8.46201808207667
C          17.48196612735215    7.21414262653416  -10.10786558181064
C          19.20406031808087    8.24612613094724   -7.46835990744640
C          20.95165533910308    4.98672081665560   -9.42037165002323
C          21.41287178672888    3.71836423603952   -9.23026492684063
S          20.39624337437063    2.78110294786550   -8.20718853882332
H          -1.54352728660695    3.47000648700933    5.04051361748446
H           1.53422627454661    0.08615287718305    7.00694044350323
H           0.16969550505805   -3.06074224196810    8.79338895571314
H          -1.51568858047565   -2.86135762516513    8.21746945897425
H          -0.97517394775764   -1.99792604922460    9.67199098550661
H          -4.82132263133301    1.21187384814303    8.24332640774085
H          -5.26281548555795    2.36451857844673    6.96229567164957
H          -4.83183760862356    2.96910017957799    8.59571064308799
H           2.76183528531950    4.27075571007972    2.64590521470646
H           8.27437072910351    1.66681001678830    0.13144559348953
H          11.07311250985597    0.83084450984723    0.20857129042014
H          11.98384904055503    2.34157689044263    0.14572327241609
H          12.52625096953351    0.94543924060445   -0.79330990773347
H           9.75099488128255    0.06707161988536   -1.83177275707910
H          11.18522812002646    0.21069667772577   -2.85448541593714
H           9.70767921713083    1.07908029424115   -3.28231793300366
H          13.33872485864309    2.12175486803265   -3.36984886825035
H          13.92509657841205    5.62875244639281   -5.03735827183401
H          15.04594163069257    2.79163529815158   -4.72386667434364
H          15.63550248675875    6.27644375322718   -6.44584734907261
H          17.09392608590429    6.33253271483138  -10.60823153769424
H          18.14442878568168    7.73861377173221  -10.78942406932313
H          16.65210452867343    7.86889547269942   -9.86073345442457
H          19.72142513751315    7.90920848842594   -6.57567248726929
H          18.40540529052198    8.92048675311019   -7.17540373411235
H          19.90484341536112    8.79165203478289   -8.09258922632099
H          21.45656707704540    5.71481380785049  -10.03079352687006
H          22.29885338598527    3.26746107468844   -9.63298138115249
