107
 SCF done       -233.416213090577          0.000552483101
C           0.12616970303409    1.87685978887225   -0.58753432479292
C           0.74063719653474    0.65374271667228   -0.58959662430490
C           0.28661309545078   -0.46095895659385   -1.32631300515375
N          -0.02805107744100   -1.39843130368326   -1.90770913692391
C           1.86709785549230    0.35842154466083    0.20197555731568
N           2.78519835318376    0.10833891674194    0.84387547204387
C          -1.17300988755492    2.16471787555482   -1.19761977317768
C          -1.70565149670638    3.32779704085258   -0.61092896974091
C          -2.94602736333130    3.81963038963366   -0.96739331643152
C          -3.66174072275431    3.14606685953821   -1.95050508577306
C          -3.12765511054526    2.00313404723510   -2.55449369376882
C          -1.88355798387553    1.49753929075343   -2.17877255620655
C          -3.91967321769470    1.36421027449956   -3.64285636106525
O          -4.83237051595584    1.91317193920725   -4.21001138715913
O          -3.49970600040619    0.13360799165600   -3.92198853282286
C          -4.20421664597167   -0.55170538423601   -4.94879525151727
C          -5.04546241186866    3.60644750515350   -2.32410335780824
O          -6.04586755719726    3.13926452357986   -1.85186299272498
O          -4.99380865066196    4.63751682315534   -3.16036552490947
C          -6.24783388198515    5.11666361024649   -3.63215539488879
C          -0.73433647621644    3.87626190982662    0.36018836241813
O          -0.86412199559961    4.82889652871220    1.08997505488891
C           0.48543212883322    3.02747162510770    0.21162994277575
C           1.65098975955655    3.49014035143213    0.74194111390863
C           2.99296508322014    3.13409441165161    0.47878610730435
C           3.56152350433170    2.49523371485468   -0.61547681803079
F           2.85189522954296    2.11266960002932   -1.68100462141156
C           4.94839869339697    2.37329322889904   -0.53939343711664
C           5.46687866872857    2.93257165994680    0.63678808720200
S           4.23544066696820    3.62123845813015    1.61922262261931
C           6.85664506997501    2.80058763086940    0.70656333365895
C           7.37665845149353    2.13754837690025   -0.41226537271501
S           6.16328903339352    1.66997849027513   -1.56676453163861
C           8.77020071632923    2.02017061794044   -0.35774697020128
F           9.51017603335544    1.43562015598936   -1.30500029070421
C           9.32208818899665    2.58855510731681    0.77540871278756
S           8.08924393623554    3.27628157181223    1.81727992169825
C          10.66448320369827    2.67757727138021    1.09588578826248
C          11.84910838604406    2.77288837926991    1.34735296381677
C          13.19489398575905    2.93470451121882    1.62111377305919
S          13.72163002102092    4.07090975868495    2.83288626097549
C          15.38884220608231    3.70183806259641    2.47927356883460
C          15.49658029060009    2.74289746268184    1.49018258438854
C          14.26395586346630    2.31282373945032    1.00628111627901
C          16.41483332712011    4.36962350824084    3.12377738042488
C          17.29237526696975    5.00471524047041    3.67498045674510
C          18.30358409515095    5.75434580640011    4.25878250751285
C          19.60974476299525    5.57512636050960    3.94866889960600
C          20.69072706010295    6.35045087433287    4.45251814977717
C          20.69500882728691    7.43585695012623    5.31279589797987
F          19.58576515290479    7.93803890808319    5.87103194820919
C          21.96706587399805    7.97351320935093    5.53563699116088
C          22.96616131653030    7.28472625532065    4.83672285944990
S          22.31764023393650    5.97912682796512    3.91677701817445
C          24.23021740932934    7.84197247698451    5.04406311704146
C          24.17634265374760    8.95193298245634    5.89923132149589
S          22.57100177135982    9.31605665261855    6.46184576430498
C          25.43349466471091    9.51444095624170    6.11416684814050
F          25.62380749911037   10.62768157104122    6.82798591418022
C          26.46189622519816    8.86532861716279    5.44275092191066
S          25.82996953019006    7.52732557618580    4.49831944633365
C          27.83870538911615    9.17028844310388    5.35545837790279
C          28.63397908759772    9.93864221278249    6.15016727464621
C          28.49450667484025   10.50076004590178    7.47506071548470
C          27.75857621098639    9.98761730490346    8.50934724256730
C          27.72774697928252   10.53134918376755    9.81106960708754
N          27.65165733703814   10.93166323687246   10.88329376694973
C          26.99293661834963    8.81128952283238    8.39638161944321
N          26.36639407549530    7.85287800142634    8.31574409876800
C          29.48582003434959   11.57047866476258    7.59695401945710
C          30.35467092704972   11.51529124780954    6.49072462690518
C          29.92000135592248   10.43734895315519    5.57762471336827
O          30.45033127199898   10.05898720434694    4.56114584967517
C          31.40576903633555   12.39737929285645    6.34992156348278
C          31.58650656819557   13.36561784495635    7.33527409939121
C          30.72450072324357   13.42683696051301    8.43535563263467
C          29.67096090768985   12.53081451052316    8.57815096501070
C          30.99500284835285   14.43345494665505    9.52130784151802
O          31.87013020701892   14.30569048608952   10.33373712244358
O          30.10381948569584   15.41669706487880    9.49359918459765
C          30.29518058237406   16.45409679226237   10.44884585942007
C          32.65029325263261   14.40121764430400    7.22635861980643
O          32.59116903929292   15.47503784012367    7.77208435474533
O          33.65894040372244   14.01062360104084    6.44905163026005
C          34.72502382187810   14.93857273427699    6.29569124194649
H          -3.34119817746841    4.70378541233224   -0.49162940839881
H          -1.49946098924533    0.61836280737030   -2.66971400002110
H          -4.08806524616464   -0.02909926899503   -5.90050020389584
H          -5.26691169666644   -0.60706812691744   -4.70513537882655
H          -3.76829436306837   -1.54570522855559   -5.00074498614219
H          -6.91788607824283    5.31560176556392   -2.79348072313457
H          -6.70137483400286    4.36704488585294   -4.28260360972790
H          -6.03680060388245    6.02830996213251   -4.18483445143704
H           1.52762949905144    4.31638915779435    1.43698117889899
H          16.44619212347353    2.38285558818027    1.13694561517084
H          14.13602135809192    1.57822838656550    0.23167731681867
H          17.98826486854341    6.51026958796812    4.96427101384250
H          19.88373001502239    4.79849301123306    3.24712268336133
H          28.33452482309809    8.78384363482492    4.46898687392926
H          32.06267673398412   12.34505405369335    5.49609688115391
H          29.01690965398979   12.60414849591886    9.43216348097971
H          31.22252471178433   16.98589303768183   10.22963774857730
H          30.35176022829449   16.03609505193776   11.45576621615267
H          29.43950537130991   17.11698215038056   10.35221824692766
H          35.05411709170899   15.29937182464004    7.27207710299151
H          34.39942511698958   15.79111786546136    5.69587086176618
H          35.52511755275724   14.40168131236647    5.79279905690679
