95
 SCF done       -182.278018221177          0.000502679557
C          -0.95616933785795    3.14692472458878   -2.61753116664613
C          -0.21509549696202    2.76917325412009   -3.70254789555752
C          -0.31628775971586    3.37270267949548   -4.97301932307470
N          -0.36788987015326    3.82030151088826   -6.02808768622929
C           0.67825011859674    1.67835912819682   -3.67554027045658
N           1.40379513066825    0.78931936325418   -3.68513978325438
C          -2.01969245839468    4.14682135469294   -2.61455088107260
C          -2.86011172674416    3.91545635834360   -1.50888641978645
C          -3.93910186026790    4.73259161765148   -1.24525879081398
C          -4.17807268846769    5.81449246823180   -2.09274957666759
C          -3.35598179224410    6.03610727461351   -3.20266479142778
C          -2.26875553534155    5.20748318339397   -3.46783129768868
C          -3.61981670453830    7.16144425189142   -4.15461087076735
O          -2.80678275484961    7.98275648278088   -4.47945839368135
O          -4.86302002075802    7.09485114093526   -4.63942262202143
C          -5.21858905857788    8.10978133573304   -5.56919749190735
C          -5.28345317290090    6.74858852406103   -1.73566934241785
O          -6.30398821018795    6.42009246620842   -1.19045350616103
O          -4.97200068996858    8.01286238463333   -2.04284858774682
C          -5.94887773873418    8.99469313902138   -1.72677035609542
C          -2.33641062721996    2.77066637881822   -0.72577976196547
O          -2.82953021515243    2.23701041040655    0.23767995981386
C          -1.01200195606505    2.46634358047032   -1.34288691082510
C          -0.09152034294441    1.76469703057882   -0.63097509935387
C           1.32936350863319    1.74386745838253   -0.75979727360422
C           2.10030352923598    0.77670349606614   -0.12541352826029
C           3.49478674096473    0.78597856746438   -0.10106464211595
C           4.26256851036621    1.78306208047334   -0.68972897592586
C           3.51814780897083    2.78581679972123   -1.37915313361506
C           2.07441288368701    2.76809053504675   -1.40617429212288
N           1.68305257004727    3.85382112932434   -2.04318453678874
O           2.79132527216618    4.49898226947559   -2.40354325913475
N           3.89827735615018    3.87656150222979   -2.01392341310479
C           5.68697866413707    1.88155654180481   -0.52177663963908
C           6.45433827710246    2.83498376092558   -1.18346728692838
C           7.78405339198129    3.10380783853984   -0.87436362074307
C           8.47598323309687    2.45239819495849    0.13969795548335
C           7.77969733775182    1.37073850836484    0.75103990724402
C           6.40117993549494    1.08351827785557    0.41870906821106
N           6.04215720456998    0.04899627950082    1.15255801301871
O           7.11215512716876   -0.28830977391163    1.87915534129538
N           8.15849415838447    0.49532504238934    1.65481685346173
C           9.72803449664716    2.89552653690736    0.62945806934082
S          10.50955866388210    4.35199830049046   -0.08101867076735
C          11.65748067825414    4.25988212826981    1.17842615202883
C          11.39457731864693    3.15015305016136    2.00653293226664
N          10.34075815835689    2.42671359451396    1.68088343040659
C          12.36000426832324    3.10438680534545    3.14796392680384
C          13.14949193115531    4.35860408426201    2.90928136854164
C          12.72565211844969    4.98713511763576    1.72973484187842
S          13.55967809547657    6.45733603042030    1.43586007292857
C          14.45678609628743    6.26129442832612    2.93017114380884
C          14.12517632294758    5.07765331097881    3.58077536911890
C          15.30787926997988    7.31539983066698    3.33898272496327
C          15.92152540737939    7.40796403275378    4.54573574722075
C          16.66372240196734    8.53192770737132    4.97872485543521
C          17.21116173620272    8.73504384900381    6.23514942955410
C          17.81955407219160    9.97623027529833    6.38739781395127
C          17.74605892736665   10.73721753565400    5.22622124396190
S          16.92919503602239    9.92390495600905    3.95003673381081
C          18.31589003514539   12.03750476762995    5.25183704536158
C          18.89509802433135   12.46816191975859    6.43344782049614
Ge         18.72627160758491   11.03997774336480    7.77824122323347
C          20.45825694265359   10.27918145915578    8.37601524553782
C          17.52484458595382   11.51364677382391    9.28521703668886
C          19.40688535660520   13.77051479027165    6.31739358376347
C          19.21631956634235   14.30212730097224    5.07760061645817
S          18.40252660955498   13.22877543767929    4.00614320149899
H          -4.57979835101431    4.55928057778740   -0.39400290438171
H          -1.63461605321826    5.41948692321361   -4.31421405797804
H          -6.24881783638826    7.91334932277815   -5.85409054072785
H          -4.56371086882636    8.06814543946865   -6.44173029602212
H          -5.12466349808131    9.09384123434611   -5.10576051273632
H          -5.48521775671189    9.95784473299774   -1.92433554827050
H          -6.23897749225149    8.91450075684009   -0.67720573868709
H          -6.83600742651165    8.85806752934507   -2.34868261342959
H          -0.48718798059059    1.22806313496067    0.22629221290024
H           1.58945002414331   -0.02951566856272    0.38040426682662
H           4.00741578823532   -0.00127165325377    0.42908066953643
H           5.97710715105081    3.43505092728244   -1.94122185455475
H           8.28089241911762    3.90033535290023   -1.40872107237664
H          12.98447301453254    2.20960424138891    3.11046670799599
H          11.84655453927072    3.10912936758014    4.11060841582388
H          14.57504304738921    4.77609732614848    4.50865990809631
H          15.41620312345129    8.13494419834581    2.63993078309557
H          15.82097348269415    6.60974469189154    5.26840195087861
H          17.15235878553216    7.99474890870710    7.01458757090935
H          20.28970072774106    9.37818810865515    8.95751637963888
H          20.98840356212294   10.99571748086249    8.99564829153790
H          21.07837120237541   10.03172466694298    7.52044720541708
H          16.58932247500934   11.91688487819194    8.91042791942656
H          17.99458329138218   12.25745453588209    9.92115252137378
H          17.31007823329739   10.63390620806434    9.88384795529019
H          19.89707357954875   14.29628508529207    7.11813815607531
H          19.50540434639710   15.27059137456474    4.71860560006817
