111
 SCF done       -207.446014078746          0.000442730716
C          -1.11587126214528    4.70762065271544   -2.32660552090036
C          -0.71519549521925    3.49308226821878   -1.83715938648543
C          -1.07424480480752    2.25370216806088   -2.40608049944454
N          -1.30410312654703    1.21839836690138   -2.84480360134086
C           0.02860997795452    3.33491021525638   -0.64768882014887
N           0.57412713070380    3.14985920708714    0.34499973283247
C          -2.16875847292648    4.90463568788727   -3.32203463786365
C          -2.66182869007353    6.21805590900285   -3.20291211987860
C          -3.72486104405752    6.66310832452143   -3.96011501077632
C          -4.30075146923574    5.77882276958830   -4.86992832987299
C          -3.79609786557748    4.48203722549561   -5.01360276499608
C          -2.73164153056404    4.03270037308190   -4.24094120309022
C          -4.47748433202583    3.53280078156286   -5.96187610609455
O          -5.50381233394201    2.96457705436400   -5.70499002528902
O          -3.75845759759533    3.36543509128987   -7.06603448916104
C          -4.33491409505490    2.52764952481737   -8.06110893709531
C          -5.43710531537814    6.18457320237324   -5.74007490171720
O          -5.69049643497978    5.66219182003104   -6.79738362474114
O          -6.13754682932988    7.18956108120561   -5.21503347872164
C          -7.26324465078865    7.62655307184172   -5.96435684765988
C          -1.86919258165210    6.95741361031213   -2.19250971359527
O          -2.01729424589794    8.09855310170143   -1.82883403254586
C          -0.80447001117685    6.00765796538300   -1.76698237975608
C           0.25839444892059    6.45225905342694   -1.04633476188646
C           1.50493778976794    5.80672426515863   -0.83345473969795
S           2.24800301103399    4.80630192854008   -2.04605595513626
C           2.30833497529820    5.88589246068192    0.29421522144314
C           1.88412950494544    6.64988851993640    1.48959902928274
O           0.85725977113407    7.30376351470403    1.53640910306667
C           2.82199872327300    6.52256581256406    2.58596571137207
C           2.78785437476795    7.06835149989158    3.85201290175925
N           3.84979091184417    6.60372172410762    4.54956870694088
C           4.20076208294044    6.99170290189904    5.89245264343666
C           5.16511308054622    8.17600584339471    5.88742744499091
C           4.57760329999877    5.77155306679969    3.76655155206145
C           3.97362875102258    5.68896048909369    2.53135759326879
C           4.38056954254581    4.90785236398858    1.37345635075862
O           5.32358810777909    4.13885001373268    1.40559506126477
C           3.50547102586563    5.12490550709304    0.19870033723842
C           3.63937968445382    4.49966503801781   -1.04061414818239
C           4.62710842849318    3.64231502088353   -1.60012325850239
C           5.93001325496817    3.56559335715466   -1.23885646738387
C           6.84887522873615    2.56268991017151   -1.67546096366012
C           6.57541387441961    1.51602282368732   -2.55082959945222
C           7.42964467021412    0.43253631286336   -2.74568115273823
C           8.63438445041612    0.28680640529895   -2.06546811674713
C           9.01349113805500    1.38541454428349   -1.24979786047222
C           8.13770271019300    2.51582640017651   -1.07186933563718
N           8.75733874777057    3.36150606642740   -0.27478421353178
O           9.92941915318139    2.80746181932144    0.02412033035349
N          10.10300058570365    1.61469476449328   -0.54798423525728
C           9.38365108847489   -0.91643248833145   -2.08853055508445
S          10.73942359650363   -1.15576714346285   -0.95755987199595
C          10.80914734423884   -2.77586152246474   -1.50557170298398
C           9.84713036923372   -2.99999760926734   -2.50761541300682
N           9.07627155070514   -1.96859467728711   -2.80598686723986
C           9.87516995918678   -4.42413812095516   -2.96548128935329
C          10.91921967407274   -4.99695592901284   -2.05212839627804
C          11.45247190157990   -3.99825093597494   -1.23021624839705
S          12.60475482657058   -4.61114911077356   -0.11444103064702
C          12.35445183543852   -6.23500318220390   -0.73207833071106
C          11.43562299211434   -6.25398448327104   -1.77334724192463
C          12.97786402018079   -7.35968790367809   -0.13940815594541
C          13.79836274142339   -7.29874606301232    0.93850550663693
C          14.34260140653506   -8.41495091008268    1.62061342227242
C          14.16058206602845   -9.77012313152007    1.40031271485244
C          14.80778671267254  -10.57803123226986    2.32929574667565
C          15.50277285675022   -9.83556779418149    3.27727436418727
S          15.35961075608341   -8.14242188282183    3.01858027906275
C          16.19143757926735  -10.54652011450709    4.29644699594598
C          16.11792549093089  -11.92863856543254    4.28645841724892
Ge         15.01185462204181  -12.49094030075391    2.75860064148098
C          13.30406021210623  -13.35517279983533    3.28523055674505
C          16.00138368258537  -13.52302378057970    1.38191629908807
C          16.83399618876543  -12.49618774877386    5.35320393678740
C          17.43036664608258  -11.56090258309942    6.14326015433866
S          17.13703990280642   -9.94967658270721    5.61077833461160
H          -4.09996143753519    7.66824545378821   -3.84955006731501
H          -2.36437174266230    3.02695727610207   -4.36813059788780
H          -3.57204590536506    2.39134044038745   -8.82283751181003
H          -5.21677833784031    3.01403838310522   -8.48105482812120
H          -4.62726810899736    1.56974156608755   -7.62686138900851
H          -7.79892082775373    8.32523304084591   -5.32697535018060
H          -7.89644545547017    6.77591936083099   -6.22395257872947
H          -6.93791539552934    8.11789700854193   -6.88364332164458
H           0.15032979891831    7.43573053723011   -0.59754380262755
H           2.07228781378137    7.74140831070440    4.28096684883182
H           4.66285712400422    6.13628477403957    6.39210365054681
H           3.28518072977217    7.25615858470416    6.42700342398399
H           6.07970842550586    7.91725716592589    5.35955126291226
H           5.41717874415919    8.45364027560088    6.90685947264129
H           4.71125457946603    9.03202854712812    5.39398992828422
H           5.46604921861091    5.28649200890945    4.11904378690365
H           4.25847887674983    3.01349271699044   -2.40129725119408
H           6.32906334161183    4.24519037844961   -0.50273911132163
H           5.63410886740229    1.50794684641580   -3.07835388262358
H           7.12944135835014   -0.36843752956641   -3.40306765842844
H          10.15711709256643   -4.50371618008445   -4.01728198455680
H           8.90507543582464   -4.90857503421556   -2.84357324440954
H          11.15338741152923   -7.16150050618760   -2.27623983402690
H          12.72658801821097   -8.31590725631661   -0.57685741266355
H          14.04413801259666   -6.32627725662436    1.34648569310767
H          13.56498034922123  -10.15517741602473    0.59144763822597
H          12.79679538845473  -12.75981915750040    4.03762832734946
H          13.49214786318112  -14.34379528586187    3.69199052011597
H          12.65232501877920  -13.45516470661105    2.42280542922252
H          16.92419446306469  -13.01589395992241    1.11915040302128
H          15.39592277211290  -13.63161612557496    0.48742142744583
H          16.24223146306834  -14.51248287322345    1.75776296328868
H          16.90582826926328  -13.55508169397634    5.53151702382424
H          18.03218050944866  -11.71508199273942    7.01761929665498
