122
 SCF done       -247.322172588756          0.000648438730
C           0.86540979733285   -0.00928439022545   -2.40166908460975
C           1.92045070781577   -0.27665788386099   -3.23418447140526
C           1.85176943995843   -0.20951913636818   -4.64278551072675
N           1.85677241976910   -0.17863305112659   -5.78932816499239
C           3.17175039913184   -0.74679733297980   -2.78948654184981
N           4.19836387042326   -1.14946850221974   -2.47007504318367
C          -0.50428990633969    0.24066255976929   -2.85492477288970
C          -1.39091438075842   -0.03681688042010   -1.79737431321250
C          -2.75690096699277    0.07119964321297   -1.95142751113935
C          -3.24848192787498    0.47892763732899   -3.19064956038143
C          -2.36995254387334    0.78360011592958   -4.23595904703738
C          -0.99333299198633    0.66661622311816   -4.07890583328145
C          -2.92051044719000    1.32459492473572   -5.52953493040916
O          -3.20328058475164    2.48131353514849   -5.68796049249323
O          -2.96383447858623    0.38172756966965   -6.46136338500493
C          -3.51577559136344    0.77083450536810   -7.71378731496199
C          -4.70793953769353    0.58224695233056   -3.45814971705915
O          -5.18147855880647    0.64232552113203   -4.56603323026066
O          -5.43230776745268    0.59016622726444   -2.33905906959306
C          -6.83952686101453    0.69121853241758   -2.51150411066160
C          -0.61652765166768   -0.40610514473634   -0.59254412287654
O          -1.03481221391104   -0.75758494041320    0.48482400660477
C           0.81082966513384   -0.19834007728191   -0.96859613492751
C           1.74171017148907   -0.14497227159179    0.02758991427319
C           3.04259547267757    0.39461462533611    0.00366213070398
C           3.61403990936855    1.26652822415948   -0.91470630678647
C           4.91748753480887    1.60143018427759   -0.58124172652670
C           5.35469763114123    0.99129180538101    0.61605324063697
S           4.15027090278606    0.02102822368005    1.32384342106087
C           6.69111855011830    1.38737061280191    0.85227616620252
C           7.10412480397091    2.23542847955074   -0.19298830926735
C           6.00438391593278    2.38681723779262   -1.13383981555525
C           5.99890444995368    3.08426473486860   -2.30631664758965
C           7.12326417745776    3.80853590112810   -2.75355487788984
N           8.04155298531616    4.39921290349694   -3.10376655055834
C           4.85808082324106    3.11295467082904   -3.13620367511179
N           3.92028999099207    3.12772680064699   -3.79569943019958
C           8.41290784725462    2.68252433421324   -0.04743713090186
C           9.00748943108609    2.19092619742256    1.10485158750727
S           7.91948526993640    1.14727802022987    2.01454602839138
C          10.32387879911853    2.45501038148113    1.57701909273929
C          10.80115582700768    1.95378751761101    2.76719374582259
C          12.07055764985635    2.19578659951448    3.27998493255167
C          13.03229536525693    3.03256452371610    2.56041212409611
C          12.78167497477008    3.62254487632916    1.37054533367192
S          11.29570833117818    3.48140078124038    0.52904162102227
C          14.19327266279802    3.05854851070900    3.38010752243018
C          13.98467373897739    2.29998036144312    4.53625220606682
C          15.12825397414476    2.30300093961720    5.36749946485997
C          16.13701446193839    3.04271185210990    4.83646652919274
S          15.75498642227237    3.76577398151868    3.31344985274927
C          12.65216969994465    1.74972521515449    4.49064948178892
C          11.99359799633214    0.92747397829146    5.42492259086295
C          12.48025561838376    0.51902125614449    6.63119148262022
C          11.77337442174403   -0.31312934610542    7.52546175965127
C          10.51784780334944   -0.89732100601371    7.37677547972943
C          10.15900388788906   -1.65831391284694    8.47895334649967
C          11.13877982267239   -1.66771175253047    9.49370844227415
S          12.50470243466059   -0.72944200681017    9.07000593701129
C          10.68113235008778   -2.47365452995546   10.55571350748132
C           9.40385206366128   -2.98133387971793   10.21508253624797
C           9.04059222503938   -2.49024048349235    8.90170125618627
C           7.90494015113435   -2.77193204477784    8.19856561804043
C           6.91203968962035   -3.62734262937733    8.72059050411154
N           6.11434563094089   -4.32287894258279    9.16176910740724
C           7.66088170066305   -2.22345168854373    6.92321237982152
N           7.46953488573099   -1.76135340500912    5.89081372135274
C           8.87706075486687   -3.81721556388211   11.18706336321766
C           9.72748750027379   -3.96520761869263   12.27625218375073
S          11.20062628814071   -3.00985204146052   12.08417860127826
C           9.54161413922646   -4.69744207301166   13.46190093189147
C           8.64896440854234   -5.69635772000990   13.73236419742660
C           7.82433057340650   -6.54793882389389   12.90661492314917
C           8.07901066690803   -6.95851308732533   11.62319436912131
C           7.29712793511221   -7.90200210963714   10.92291735701344
N           6.70903386002826   -8.66761713358086   10.30301791422130
C           9.21057812796868   -6.56774844905954   10.88163497859994
N          10.13099901069738   -6.29854898881959   10.24993043580986
C           6.80798845839610   -7.14186649140947   13.77821988493868
C           7.13449756914851   -6.85659231952285   15.11730598154511
C           8.34445873256773   -6.00615666603937   15.15551787202640
O           8.94477130603680   -5.60797773736911   16.12654477358644
C           6.37343287501196   -7.33010136122888   16.16472690427778
C           5.25389147897142   -8.10580165885823   15.86631967297145
C           4.91365403007498   -8.37513254554482   14.53655822960020
C           5.68361909013502   -7.89495796202823   13.48289130533962
C           3.65308216492778   -9.14278340321155   14.23594462471328
O           2.56639725117044   -8.63349450721316   14.18862523269210
O           3.92728324190463  -10.41082751232515   13.95659001799224
C           2.80542283706483  -11.24878423010418   13.70485251836916
C           4.40208796765818   -8.69312578633221   16.93411891378580
O           3.61913774940586   -9.59168930225767   16.74713261421634
O           4.60502317624754   -8.12035801350443   18.12121881043736
C           3.81957353485233   -8.62183294462891   19.19421802071262
H          -3.42641284034828   -0.15683290460678   -1.13728950966632
H          -0.33693943562764    0.92165559088184   -4.89548635988197
H          -3.01790622336931    1.66882431463300   -8.08460142722697
H          -4.58107206274105    0.97514268319064   -7.59391160539556
H          -3.35767307739823   -0.06624593435648   -8.38843653361967
H          -7.21762949481010   -0.17777043285024   -3.05382559579887
H          -7.08672631195818    1.59244122418190   -3.07590062604996
H          -7.26482761151839    0.73447050909866   -1.51238640100057
H           1.39299412984339   -0.50885750110448    0.98964430046882
H           3.07646614103933    1.66920119787751   -1.75335941914811
H           8.91886409747474    3.33665438863755   -0.73452538552457
H          10.11988176129327    1.33205650218891    3.33319010715569
H          13.50872958976602    4.23446161228398    0.86047256458727
H          15.22627832638715    1.79170286015205    6.30692914003243
H          17.11014400104236    3.21469463504320    5.25316590861608
H          11.00179411166995    0.60200116805410    5.14437618108981
H          13.45788407693867    0.84025122769120    6.95375805177545
H           9.90786414869441   -0.77071298641142    6.50207321151947
H           7.90151422900404   -4.26620427327349   11.14281377204032
H          10.14133995535819   -4.38890188639776   14.31330441820744
H           6.64058075083379   -7.11256171664086   17.18667362245145
H           5.38947744386941   -8.10309829010610   12.46668287388720
H           2.17090198055715  -10.81055706647906   12.93214705023565
H           2.22536841285742  -11.36532742032457   14.62187266747973
H           3.20760877554685  -12.20446747643519   13.37946174435575
H           4.05875635064656   -8.00720828213651   20.05797636827778
H           4.06562625005625   -9.66817095200736   19.38636648739312
H           2.75780144982290   -8.54967718011311   18.95066052104842
