120
 SCF done       -251.063643497477          0.000402357589
C           0.00952595706821    3.11620322626451   -0.68379287271689
C           0.50016890479266    3.95869982441069    0.27868824876418
C          -0.24489984528195    4.42076259040768    1.38564114819598
N          -0.79370011860944    4.82791942587499    2.30667042595453
C           1.78368108145209    4.53765200068705    0.23252554563477
N           2.81265579728625    5.04664140447503    0.22031102351004
C          -1.39249295155425    2.70930824936540   -0.79942151865778
C          -1.63255370896625    2.27104425255443   -2.11566545338207
C          -2.88109115504045    1.85086839733178   -2.52369176264599
C          -3.91602825774816    1.86448189639250   -1.59069915053364
C          -3.68335750292001    2.29762785326714   -0.28088852935922
C          -2.42355653957735    2.72276162407686    0.12617825864391
C          -4.84120436844424    2.38487791012355    0.67827119566496
O          -5.63479992700224    3.28593420869740    0.66480647602264
O          -4.81124575518320    1.39301298314189    1.55919010104281
C          -5.89551753196523    1.35116866489070    2.48032717433080
C          -5.27944286875698    1.37345678836723   -1.92949176803700
O          -6.08413082455009    1.01937078316385   -1.10379170628512
O          -5.49995450736177    1.35144269152537   -3.24321655090989
C          -6.78326544368906    0.89477983932765   -3.65004933051712
C          -0.37365513436803    2.32218665105973   -2.88833399686285
O          -0.20373268887235    2.07217295228432   -4.05776897344032
C           0.67614646756842    2.69708941605416   -1.89777602790955
C           1.98168973760536    2.51996520723511   -2.24863474890970
C           3.12830122196868    2.42749024490325   -1.43386603234484
C           3.22579112540606    2.16810411199436   -0.07284365636646
C           4.54354298706882    2.11388746921483    0.35842881352566
C           5.47211785822758    2.32787464779402   -0.68236827155573
S           4.71581012077523    2.57456730330217   -2.18428576373034
C           6.77638065871710    2.26526455527831   -0.13530398390804
C           6.67652647693123    2.01797806592520    1.24600121248792
C           5.26866285577701    1.92688853534874    1.60292788478746
C           4.73282360996388    1.73698185962314    2.84230935297133
C           5.53737793926679    1.57472959690008    3.98977918666467
N           6.19923466321957    1.43555890884441    4.91533913234286
C           3.33586998727903    1.69069953834758    3.03801760854912
N           2.19850469142725    1.65019945336907    3.17639236118454
C           7.91760693327387    1.92702333049321    1.87248968114248
C           8.96062051707625    2.09966063442511    0.97828712825790
S           8.39709665840531    2.38834697388036   -0.66002585066627
C          10.35090371673556    2.04457650532521    1.24800237694566
C          11.38690557708611    2.19645487165303    0.34316441392335
C          12.63280181234561    2.05148416971639    0.94953306060342
C          12.54413647903508    1.78934738178727    2.32854048233175
S          10.92839954041012    1.72498460966905    2.87734526636736
C          13.85569076947300    1.63919977941638    2.84467396717148
C          14.77347492797866    1.80522115748088    1.79155760088962
C          14.03593931435344    2.07321992993981    0.56694730518035
C          14.54991049230945    2.28927239781595   -0.67706597721136
C          15.93928890594761    2.27569482795509   -0.92486933904889
N          17.06818861173382    2.26024675400701   -1.12314987002061
C          13.72405466551096    2.53421295995390   -1.79498191669788
N          13.05005562890495    2.72980324007505   -2.70137970560892
C          16.09794982381509    1.65693114425038    2.19709691374173
C          16.19642876461036    1.37865273695657    3.54921362371783
S          14.62382103522734    1.30537614441216    4.33234136485666
C          17.37842303177909    1.14733303513390    4.29557622980634
C          17.48100422133250    0.86693557010967    5.64835976845828
C          18.80393953721692    0.67799120428351    6.04015105124486
C          19.71478832495604    0.81567681829195    4.97724955209972
S          18.94212933576650    1.18169464812658    3.49774045374705
C          21.02206944007791    0.60249420989524    5.47222661495325
C          20.94205791419549    0.32255410929757    6.85306569359814
C          19.54596211601064    0.36391846298664    7.25357563432085
C          19.03245946839687    0.14760034122633    8.49767335924208
C          19.84972889415863   -0.16664087458528    9.60491451140286
N          20.50844283866886   -0.43003768878747   10.50510726229852
C          17.64624735512540    0.21354400649666    8.75475350444435
N          16.51914192298097    0.26423031012774    8.95805218475199
C          22.18506361187641    0.07652899265459    7.42296848674692
C          23.22076774117706    0.19938497151939    6.50654889641904
S          22.61950815780054    0.57949418175692    4.89164514985928
C          24.58390250825737   -0.05604691449733    6.77187229498268
C          25.68719225155435    0.24488993569367    6.03299122540841
C          25.91312190229195    1.15643800819134    4.93236969067621
C          25.30624765456466    2.37047137952337    4.74978493439348
C          25.64817307419959    3.27661265544545    3.72449124667751
N          25.87522997419676    4.04297245641262    2.90159836446041
C          24.33609644801411    2.88470661326513    5.63554281020261
N          23.57307522203777    3.34317242350098    6.36015450528861
C          27.12059871603454    0.70674734534143    4.24126447364778
C          27.75683761735645   -0.26841944500231    5.03352096275986
C          26.93988208288876   -0.53587292393233    6.23915436100304
O          27.19494736601433   -1.26483578267296    7.16689070738196
C          28.94954317914248   -0.84386238498004    4.64943039607178
C          29.51591487660674   -0.44079518417629    3.44066988108294
C          28.87796466202241    0.51486741638238    2.64235375295804
C          27.67747767814477    1.09630884436320    3.03457469291977
C          29.45868543711575    0.86880506428234    1.29757650170581
O          29.21882098939675    0.24807370316476    0.29766685079982
O          30.17313569415120    1.98429558241359    1.36616780331677
C          30.81628623731170    2.38518258099496    0.16163087982772
C          30.81301281105921   -0.99025448293657    2.96243143033230
O          31.44518963473680   -0.51391560893137    2.05203110085001
O          31.19934786435545   -2.06214626023742    3.65377031034801
C          32.42945828866307   -2.65033180684958    3.25165033025429
H          -3.05003612488259    1.51584003845742   -3.53482196709346
H          -2.26977601210345    3.04253544174485    1.14431630022389
H          -6.82309396969761    1.14925846324290    1.94212112323581
H          -5.98527702294758    2.30525087213960    3.00318677938619
H          -5.67144334335228    0.54745942309463    3.17650190564409
H          -7.56127301141664    1.53934648961832   -3.23612354003703
H          -6.95000825123540   -0.12636119052165   -3.30068559701624
H          -6.78890771444820    0.93555486514853   -4.73615439775670
H           2.14102174562815    2.35837918171507   -3.31109537901615
H           2.37083057395845    1.97991260312517    0.55037554380478
H           8.07207274699909    1.74167375440926    2.92043367979331
H          11.22394736054125    2.39761378728162   -0.70046924992084
H          16.95695112338884    1.74073246111543    1.55575346158314
H          16.62552207881468    0.80708298878531    6.29704487875679
H          22.35689816038209   -0.15791625368126    8.45806694765775
H          24.77445474513391   -0.65961270186848    7.65485614895425
H          29.43319726444666   -1.58285032838549    5.26832224189078
H          27.19747852644193    1.82049135462425    2.39561903424998
H          30.09442211071784    2.43226642673273   -0.65595171217348
H          31.59683642409419    1.66519817935480   -0.08984314586709
H          31.24421411751686    3.36466398408039    0.35751114250734
H          32.56125753827774   -3.53170418950264    3.87353946817279
H          33.25140467025941   -1.94734251613492    3.40102403650600
H          32.38936299674300   -2.92481132887087    2.19577885834356
