87
 SCF done       -170.222802917481          0.000213103909
C          -3.84111927673748   -1.50137939260670   -0.31690361327312
C          -3.19381672161130   -0.36289156665237   -0.63433922910106
C          -1.77546679031957   -0.51496948045737   -0.65323939236266
C          -0.80389616925299    0.45448398861750   -0.95638585703568
C          -1.18039245151380    1.78788805210068   -1.38624961351159
C          -2.14284200414940    2.13557021180148   -2.28919990985220
C          -2.23303320020516    3.53244324422982   -2.47497085740006
C          -1.35794595861540    4.25983537843501   -1.72295362065971
S          -0.38250564914280    3.20306379728943   -0.75902163499859
C          -1.18022921879930    5.73276610767477   -1.66326286596471
Cl         -3.36145417970551    4.24162088434684   -3.56825717002159
C           0.52560263056205    0.06083021329228   -0.84728900610435
C           0.91621580496473   -1.25853245154388   -0.50794836527346
C          -0.05695280611222   -2.24012088064094   -0.23331019637662
C          -1.38594867633372   -1.82812927116727   -0.29860084497741
S          -2.78195830183837   -2.83319219999150   -0.00764069328653
C           0.28865697814576   -3.60854042731690    0.09442616944957
C          -0.32176260759941   -4.43161557739273    0.99785610586002
C           0.24774917012729   -5.72190425218045    1.03546237890919
C           1.27937016935163   -5.91047626648414    0.16299063588996
S           1.57356606259831   -4.45487381082565   -0.72601665786732
C           2.10442506582594   -7.12846995199838   -0.04654798238099
Cl         -0.32151132708920   -6.95208138818967    2.09756780593382
C           2.32329830202990   -1.39386961677001   -0.48189239678200
C           2.99388114553642   -0.24868963777156   -0.80516262107312
S           1.90352265630587    1.07716322045045   -1.14574756610869
C           4.41999248007474   -0.10646946313201   -0.88160135067344
C           5.08228918834241    1.09868636077111   -1.07098045665107
F           4.37622186431153    2.23956733976338   -1.18408614065501
C           6.47584218759868    1.20824067776296   -1.14690513078874
F           6.98108598004967    2.44834347010637   -1.31796117145877
C           7.35463077520023    0.13270212887444   -1.06276627097767
C           6.70503802869386   -1.11382324143944   -0.87679980321568
C           5.28472174568312   -1.22513851043739   -0.77965815602022
N           5.00114728831510   -2.52377553963417   -0.60689317561654
N           6.16219518266427   -3.11624180911970   -0.60548427104754
N           7.20735146138429   -2.35107743439342   -0.75751828911295
C           6.27137605235672   -4.53251579651351   -0.43688379283133
C           8.76906074709656    0.32172051297536   -1.15863619798931
C           9.67974437878830   -0.67999716428147   -1.15490983371731
C          11.09388123416775   -0.52350545338054   -1.24049884732097
C          11.76888775036265    0.64706296096385   -1.14437923094300
C          13.18519840119965    0.75686522703585   -1.26063636645898
C          14.05462930603744    1.80640247293941   -1.00318195088960
O          13.80812434146993    3.02990208928144   -0.46260468422918
C          12.56911271076973    3.34245280417044    0.12613248610877
C          15.41253112753821    1.49966960268811   -1.33309402908193
O          16.51058030431070    2.27139925641716   -1.15172958289895
C          16.38512080471618    3.67907997494127   -1.14219806775935
C          15.57300339794720    0.21836676015436   -1.81189752971821
S          14.06966642935884   -0.63508340010724   -1.85097774557537
C          16.80437679918322   -0.37442775051343   -2.28735482349522
C          17.70099831727746    0.30039119415356   -3.06249333785622
F          17.58301487947993    1.54681293764928   -3.51418485949375
S          19.08610254541571   -0.62223954826549   -3.53364189858933
C          18.42379039543568   -1.96902980235598   -2.66875540312426
F          19.13047758538480   -3.09925792301954   -2.63594142052721
C          17.23129493114595   -1.73126830812776   -2.05234937564356
C          16.49969585350995   -2.67098846350390   -1.22012534040408
C          16.64727346751403   -3.98982979203657   -1.23155047309785
H          -4.89842313178706   -1.65783821019379   -0.22904526694430
H          -3.69021897975047    0.56909536306079   -0.83132722591546
H          -2.73822972984124    1.42869875513481   -2.83707395088007
H          -0.15163309981278    6.00231275090930   -1.89951232622580
H          -1.40367021143716    6.10659552917864   -0.66432788702322
H          -1.84614426600648    6.21257151926764   -2.37628698326205
H          -1.12521351116229   -4.12925366387076    1.64285877940957
H           1.54540751230004   -8.00814405778635    0.26439162943271
H           3.01971391630372   -7.07957596571461    0.54558194535603
H           2.38026383091446   -7.22907303768169   -1.09391091520720
H           2.84386036066875   -2.29631098858712   -0.22791645683257
H           6.66966681918440   -4.76380655568794    0.55245566419116
H           6.94496661009714   -4.93827583197913   -1.19053815818688
H           5.27629999555432   -4.95828953179313   -0.54425882077648
H           9.08553693173063    1.35028023328421   -1.25908540393037
H           9.31135298645761   -1.69379418431816   -1.09378079630878
H          11.66803075060592   -1.43190885464456   -1.37223280888749
H          11.21026058134739    1.55414726079971   -0.98756189447092
H          12.21749225712810    2.54031817658866    0.77986492446611
H          11.81287981732912    3.57300532221927   -0.62972817228115
H          12.75297821627836    4.23853820309205    0.71970253854618
H          15.75668442942073    4.02896252380562   -1.96312765820834
H          17.39865610770243    4.05493424543915   -1.27586628944070
H          15.98034357483286    4.03933968110802   -0.19428683216881
H          15.78355621155503   -2.21369494737007   -0.55206157264806
H          17.33213517112856   -4.49233170895906   -1.89153293830104
H          16.07238625998922   -4.61565732187417   -0.57166960326040
