140
 SCF done       -280.733047777021          0.000347528272
C          -0.83683924026873   -4.61891256429947   -5.05713843389575
C          -0.62311713989794   -3.36477078177773   -4.61060565600258
C           0.70284054957169   -3.16436364009364   -4.12538610406095
C           1.26666746543663   -1.99732421670845   -3.57889513429172
C           0.50716453125313   -0.78006197208600   -3.36884967102639
C           0.92844321420059    0.50619020199692   -3.54623514099459
C          -0.05238610558604    1.45700214478479   -3.19057276053384
C          -1.22039493676442    0.92332176941336   -2.73199947810746
S          -1.12007489597598   -0.80567160754768   -2.74243036073630
C          -2.44975062767900    1.62065831015651   -2.27644903583161
Cl          0.22236976987453    3.15197314629258   -3.33039817094929
C           2.61568639614460   -2.05815168534560   -3.23465719023420
C           3.39806399768887   -3.22804201633890   -3.38681654322910
C           2.81762640066131   -4.41509648783749   -3.87409475652847
C           1.48401278974586   -4.33772068799810   -4.26047276366721
S           0.54633449051391   -5.64624337487520   -4.92810838819163
C           3.58135097044364   -5.64491440703703   -3.92845873117798
C           4.44221412812457   -6.12896921030257   -2.98493190936314
C           5.02018211523331   -7.36159146928284   -3.35657542063129
C           4.61967341533750   -7.82802926574828   -4.57462311882232
S           3.48872740457750   -6.72852941326839   -5.28898356179869
C           5.03165616173958   -9.07074581055032   -5.27481086870915
Cl          6.13469422193722   -8.19582196048570   -2.34209612180918
C           4.74947585854978   -3.01224737712520   -3.02086623710551
C           4.99349396750026   -1.75403991304058   -2.55443733576056
S           3.55095248061497   -0.76226133231633   -2.54129588731335
C           6.23775038841368   -1.18085468274506   -2.11886948188131
C           7.49139361795640   -1.71367070405886   -2.37808123262968
F           7.61337538043151   -2.85293531938935   -3.08357748474539
C           8.68909236398045   -1.11531023159156   -1.95595486853288
F           9.82566887873204   -1.74919658002105   -2.29772846567279
C           8.75286997750102    0.05904011606488   -1.22020823581892
C           7.48557693836930    0.62177472880853   -0.92931409343009
C           6.27285412349064    0.02323513819482   -1.37930453030275
N           5.26327550924232    0.79211255017789   -0.95094657443737
N           5.84428491047823    1.76108402584589   -0.30370228037364
N           7.14708798244777    1.72701538970689   -0.24901000826568
C           5.09582965987826    2.81697885895427    0.30466636545645
C           9.97143839578941    0.66927652280636   -0.77074516171405
C          10.05815143296559    1.74330082558792    0.06868815216725
C          11.38461467173393    2.12252115772332    0.37457496306607
C          11.81139277619010    3.17808055222494    1.20782034171070
C          10.85141147290663    3.95868841472584    1.95922840252764
C           9.70760133791041    3.52268178535024    2.56700369841904
C           8.98258454701172    4.56889481035806    3.17410801703972
C           9.55333019080895    5.80178919673906    3.04974727361201
S          11.03302332003952    5.68032184999314    2.15942856597924
C           9.07315431737056    7.10839616633795    3.56619347307270
Cl          7.48916944020829    4.29232047515394    3.98995907348324
C          13.18112452963626    3.41174645308655    1.25693407976245
C          14.12395688942941    2.64407168609695    0.52584073816631
C          13.70057595375009    1.56602881448887   -0.27787381420154
C          12.33080908368947    1.32268941594254   -0.31430855223354
S          11.54876831200371    0.08058593207832   -1.24777893425190
C          14.62336388688145    0.75731979257431   -1.04835321417519
C          14.56561577388450   -0.58732500778771   -1.28075122673166
C          15.60289209256544   -1.04313347606583   -2.12271398998717
C          16.44935266766529   -0.06535455793579   -2.55668945508189
S          15.96978658929127    1.46406133059387   -1.90229125527038
C          17.63789938140268   -0.18701756261434   -3.43933107622504
Cl         15.77253401607364   -2.70007061241190   -2.55801783442068
C          15.44685304962800    3.07726308833062    0.76661089810859
C          15.53395442518206    4.12023937912761    1.64332284188371
S          13.96517474076233    4.62178962107340    2.23041429536849
C          16.75198931728211    4.76813485246725    2.04205743753763
C          16.87095223621457    5.63296155704290    3.11921434402587
F          15.79138456057748    5.90908482600885    3.87302080535612
C          18.07521144068396    6.24891562488653    3.49881808424987
F          18.02092060411219    7.05211980590073    4.57714301205883
C          19.26891566204540    6.08092027734276    2.81430807588196
C          19.17023178656707    5.22470634624380    1.69442624839956
C          17.95851945224358    4.56948961127699    1.32814147810161
N          18.22592011640002    3.83114019732895    0.24131008418491
N          19.48953026821108    4.04564718910541    0.00194239482164
N          20.10964735168858    4.85170782995459    0.81582267036814
C          20.15488048839725    3.41140511350281   -1.09340192527028
C          20.51688134806479    6.70217469648383    3.16952925524378
C          20.89124306799456    7.23730770243470    4.36656976780411
C          22.20753998171176    7.76173056598832    4.36372066848494
C          22.88966716486659    8.38495740760222    5.42597357580552
C          22.31430448469207    8.43369264586464    6.75510957201744
C          21.67732761417578    7.42714255761687    7.42217095576359
C          21.25453900766060    7.81257586668888    8.71260944098302
C          21.55117398741505    9.10295475472706    9.04158009462538
S          22.38578439467681    9.87223396480038    7.73380796542151
C          21.25057729526883    9.83529225014563   10.29759058791945
Cl         20.43817026833246    6.72771318142621    9.77298925764600
C          24.14606956881038    8.90599628286081    5.13646458114738
C          24.74963426074194    8.80955502462276    3.86017697036707
C          24.07204065453879    8.17574264755140    2.80322162004626
C          22.81838336709087    7.64467282288681    3.09141855812935
S          21.78150137990521    6.81632009768336    1.96488455633618
C          24.64960174771944    8.11311654092922    1.47436542526399
C          25.29277977238072    9.10868856710794    0.79767430212805
C          25.72271513017758    8.70494296185928   -0.48523278762637
C          25.42346795583546    7.41201387372229   -0.79932057125713
S          24.57528486321555    6.66328977622094    0.51289881752159
C          25.71862747778498    6.66885263393670   -2.05104585059346
Cl         26.55693810318160    9.76979482891366   -1.55315723191692
C          26.06610972114285    9.35843641331484    3.86305503060599
C          26.42794394870218    9.85127791389120    5.06484058880079
S          25.20701566616859    9.68815183388891    6.27734450540004
H          -1.73881664870368   -5.02408559610809   -5.47232046747088
H          -1.37305521402117   -2.59632392730426   -4.63114241785170
H           1.88705477218751    0.77705941965507   -3.94673803308851
H          -2.67854888745470    1.36147964022138   -1.24318366619336
H          -3.30350495959850    1.33503877682231   -2.89029444049983
H          -2.30739724606087    2.69615238349346   -2.34814321882849
H           4.62936760788441   -5.65292115384377   -2.04024762898341
H           5.60474848444164   -8.83417801658148   -6.17132045411091
H           4.15891792647125   -9.64781251493487   -5.57664513377100
H           5.64850965898793   -9.67542052144903   -4.61445857512321
H           5.50646714660109   -3.76596890455347   -3.12228114373853
H           5.15218608491312    3.71765388710526   -0.30927404029072
H           5.51321878288475    3.03564775637987    1.28671557259154
H           4.06002389864175    2.49634319254564    0.38629482612228
H           9.18377491546750    2.25396524657905    0.42186872375742
H           9.40749723441114    2.49327330850541    2.62317778621799
H           8.94957641810029    7.82171465891311    2.75222601541807
H           9.79157938776807    7.52634261238954    4.27077624238113
H           8.11903033383809    6.97782458103760    4.07104288489703
H          13.83570153073172   -1.24485242128652   -0.84699975346663
H          18.55619075060297   -0.03176898487388   -2.87215266215936
H          17.60284735198628    0.55454402915200   -4.23565350936078
H          17.66509936620745   -1.18096032107028   -3.87856529906276
H          16.32059573109411    2.63926493968883    0.32544152823441
H          20.78132827717406    2.59505146174633   -0.72976729233418
H          20.78711471386476    4.13902564188696   -1.59950086910815
H          19.39523039370984    3.02167729246966   -1.76758517058759
H          20.25100726659067    7.27305336513219    5.22723818356384
H          21.54823733992501    6.43458499925584    7.03191658696640
H          20.57621850392328   10.66909749946801   10.10374389403146
H          22.16386937876093   10.23686558518982   10.73466137704205
H          20.78137972637851    9.16185986029125   11.01058991062832
H          25.42218246997123   10.10611751243386    1.17513030704423
H          26.44245061104064    7.22225695673654   -2.64448926067610
H          24.81144084662201    6.53865628767822   -2.64188564572745
H          26.11880150985530    5.68213315874444   -1.82592192917000
H          26.71184611681915    9.35315496404541    3.00478616584755
H          27.35833249263106   10.31179657831242    5.33419761222278
