104
 SCF done       -204.215878352905          0.000945753855
C          -3.42335822395092    2.33989900476447    1.02560106978566
C          -2.60656388562220    2.87563266827258    0.09715501628916
C          -1.28352089683108    2.34364699483437    0.14236040157080
C          -0.18486556948669    2.66536515036297   -0.67493389246008
C          -0.27507341662742    3.60063715598359   -1.77955621958190
C           0.64920042680809    4.52601115071939   -2.16976724603590
C           0.25730518106006    5.23715307012779   -3.32509224891412
C          -0.94914630354764    4.86258656096922   -3.83894190235194
S          -1.63635377182711    3.60279492776595   -2.87015487752461
C          -1.65777946265678    5.38722427404537   -5.03368852629197
Cl          1.23476530023746    6.47492106342718   -4.01558573705189
C           1.01892018525767    2.02716536169795   -0.38198318114102
C           1.15175861147553    1.07640240607338    0.65817347201017
C           0.04201183009121    0.72278655327998    1.44999287197672
C          -1.14661147468321    1.39191700428101    1.18190845298726
S          -2.65376636827931    1.15823648674468    2.02588231218349
C           0.16936217576417   -0.29443073159659    2.47347739334492
C           0.87878287677165   -1.45966520013456    2.40594184748504
C           0.83441536321599   -2.19169623547335    3.61098687045508
C           0.09772210382137   -1.61303457240773    4.60169890120109
S          -0.57120303186396   -0.11653527659011    4.04071370131351
C          -0.15890604359321   -2.09988549019753    5.98113391662720
Cl          1.66485842316818   -3.69165836975212    3.79865785936818
C           2.47548388181430    0.58974524612472    0.75959530801200
C           3.32198552880893    1.09495416556483   -0.18240189016555
S           2.52145677086245    2.24241476555648   -1.23399056725937
C           4.70835425110786    0.73990670630461   -0.32537919571028
C           5.59189028854888    1.34768507851888   -1.20118286780616
F           5.15954978900313    2.33475975390981   -2.00607296766286
C           6.94773402545994    0.98742249464848   -1.31068455962312
F           7.67449458408285    1.64508699331980   -2.23428351471616
C           7.53586995621753   -0.01410059106097   -0.56266883262661
C           6.65324101715010   -0.67654581357009    0.31593076273940
C           5.28047207228358   -0.30630795895930    0.43963063927419
N           4.73564628204330   -1.11919428069607    1.35719082225003
N           5.71614762023641   -1.89221132338373    1.73473878233802
N           6.87294650016314   -1.68939542277908    1.16945982320322
C           5.51850347717971   -2.90566533523242    2.72541655685776
C           8.94440924281014   -0.35493650185318   -0.65889257240805
C           9.47347239777715   -1.61417700433525   -0.81523272053107
C           8.81056579863772   -2.93851524546798   -0.92930965598412
N          10.82834732905983   -1.47706144559604   -0.88615876901868
C          11.19698727714218   -0.17264869448542   -0.77438229711136
C          12.63168493107046    0.21378339911794   -0.77809612661936
C          10.03838194362856    0.57753966446184   -0.63012136705182
C           9.87530870207510    1.97730720531258   -0.38061080630664
C          10.81006444445246    2.93212346080630   -0.55967852968779
C          10.66028687353002    4.33318636804361   -0.29022888936463
C           9.54374627031579    5.00136673888097    0.19951803307629
F           8.41407400947961    4.32951157676882    0.50294538629379
C           9.50082460661848    6.38513124213296    0.41901686093459
F           8.34309521386560    6.88752398286727    0.89846006541581
C          10.56178664131999    7.24898891195035    0.18222765621424
C          11.72175671865574    6.59982285163116   -0.30896282892768
C          11.76027807900015    5.19434176833440   -0.53519729064589
N          12.98733674477553    4.89713245367095   -0.98921482878439
N          13.60745095664857    6.04360186023928   -1.02347592061483
N          12.92586371244791    7.08702124572377   -0.63777695348677
C          14.96586798226068    6.17119611751749   -1.45342985160319
C          10.53079852960592    8.66179984254548    0.40443358749346
C          11.58661514102471    9.53017914203133    0.19722372379370
C          11.24615629909359   10.84610066486576    0.50488362996316
C           9.92313036619120   10.97926916801009    0.94712597225679
S           9.09714596455181    9.48851627456523    0.98816082676124
C           9.68679173198285   12.35654169127189    1.23006392422493
C          10.85699302037782   13.07841768603732    0.96636504513629
C          11.87800017191038   12.15834840684429    0.50305120136637
C          13.16291447248722   12.44660455997792    0.14175933518284
C          14.06523074171271   11.45276377075650   -0.29007571502711
N          14.81175472977206   10.65619536194644   -0.64358657808229
C          13.67753760805886   13.75867619129024    0.17563712783520
N          14.11056439375462   14.82046133305901    0.20910260828446
C          10.70938124753623   14.45585211995806    1.22206825497305
C           9.45600923362892   14.74617301549116    1.66559225097718
S           8.42154574704116   13.35821917921016    1.78424577776131
H          -4.45626306127448    2.56655233964645    1.20361613738050
H          -2.92075846047021    3.63279926906631   -0.59649311871139
H           1.56416301773418    4.72560863200518   -1.64417319677432
H          -1.08349323952397    6.20132197023978   -5.46873309003431
H          -2.64734498709417    5.75440204720168   -4.76375144792615
H          -1.78299543942852    4.60414885950542   -5.78123710042574
H           1.38465313012470   -1.80810623508230    1.52522960223995
H           0.34537141627075   -3.05055312538293    6.13742086959089
H          -1.22731875907278   -2.23455437791376    6.14641219601684
H           0.20517179066504   -1.38175186501623    6.71510830969118
H           2.81155782992119   -0.09303121037912    1.51454252398410
H           6.10892507788478   -2.67886471651210    3.61380273654714
H           5.83288535264485   -3.87247257746943    2.33279097813249
H           4.46082507771929   -2.92920642525006    2.97891043881714
H           7.92169834342337   -2.86393068964865   -1.55196004016097
H           8.49810408853651   -3.28747624660285    0.05462809681844
H           9.48761987016914   -3.66912489380046   -1.36723517701505
H          11.47210109336043   -2.24325516833206   -1.00491755998272
H          12.84351673368217    0.90167606742257    0.03841982635928
H          12.90186943113456    0.70609781044965   -1.71268028720256
H          13.25837441019359   -0.66915699550551   -0.66334664979281
H           8.89693348621925    2.25033449951258   -0.01492419330051
H          11.77855244624517    2.68120337620964   -0.96187574554460
H          15.23335852061721    7.22425439991697   -1.39894107222016
H          15.06703682938363    5.80809210380909   -2.47628878013687
H          15.61727810638600    5.58376174413858   -0.80576643240451
H          12.54056133188358    9.19112781236928   -0.16012733256141
H          11.48128032824424   15.19150281047009    1.08772413217863
H           9.05877688644924   15.70359398571706    1.93708725543925
