132
 SCF done       -249.684970986980          0.000648838749
C          -3.49769017889706    3.87233235968315   -2.39118363153596
C          -2.88088763268846    2.68211848930901   -2.24952000127225
C          -1.49893558099674    2.80765709803015   -1.92028704142103
C          -0.55698219446727    1.78177253943211   -1.72062629399742
C          -0.91147750839478    0.38929335111575   -1.91984433008657
C          -1.63696027975812   -0.15102811226561   -2.94116797025576
C          -1.79118085312547   -1.54971564420257   -2.81873636123011
C          -1.19995142662161   -2.08821711338653   -1.71403477838973
S          -0.41611057367007   -0.84590053409813   -0.79602317342807
C          -1.16252651142147   -3.50690646571691   -1.27662512222290
Cl         -2.65925905792865   -2.48311819020626   -3.97821769851641
C           0.72226568745287    2.17721606229536   -1.35037147669106
C           1.11059741030047    3.53396848705178   -1.22615620975051
C           0.17956728973386    4.56299905805121   -1.46370289800677
C          -1.11508393131543    4.16237988506125   -1.78832690406235
S          -2.45489566379465    5.22541684398566   -2.12508676478441
C           0.53806874707130    5.96512827900644   -1.39051773902898
C          -0.20815657813640    6.99929194053739   -0.90112312736728
C           0.44129595892690    8.24659508371236   -1.02115418883457
C           1.67257827580000    8.19064762337293   -1.60669731651178
S           2.05260624205722    6.55588321105217   -2.02361526998139
C           2.61662570656951    9.30000299201286   -1.89621227711198
Cl         -0.26767349710043    9.71308476573850   -0.46365466405111
C           2.46854943685217    3.65592798694416   -0.84457429682789
C           3.11217587269961    2.46208747671111   -0.70878551703527
S           2.05790279595481    1.10199938585020   -1.03318430437870
C           4.47806062727772    2.26902897579895   -0.35975280410807
C           5.14893498193710    1.08966059184870   -0.15219323795277
C           6.50652369970550    1.26556309592525    0.16372948638306
S           7.62928600947874   -0.04678661524867    0.48441947230857
C           6.59810342870342   -1.52213663237455    0.25150830991493
C           6.88598825779704    2.60051585952079    0.19435053411968
S           5.53067492351733    3.63498532119810   -0.16382340760930
C           8.14756393947465    3.20437180028438    0.44574853303777
C           9.34878988617415    2.62984671053401    0.78806249802944
C          10.39148539974535    3.55933521072026    0.94025928990656
S          12.04099506102684    3.15712245496500    1.37505854024013
C          11.95632856058898    1.35769387985612    1.61437264741819
C           9.99456896273263    4.86873020155279    0.71302917928658
S           8.29895005875863    4.93239448148082    0.31051688074411
C          10.72407832424892    6.08427790429026    0.76066359683617
C          10.20709757293514    7.33253961834589    0.53969134957763
C          11.15003112559350    8.37576246137882    0.66095647582479
C          10.94948939259178    9.75869461569207    0.46701111076425
C           9.64976929931712   10.32401720443071    0.16699135154385
C           9.36433808429215   11.37182306971551   -0.66211132270800
C           7.99004119505411   11.69042030437063   -0.68804122006616
C           7.21096157381264   10.90961287054084    0.11434805968361
S           8.19337032352378    9.74283259632919    0.93160875004313
C           5.74283017061557   10.97269935627816    0.33165671433670
Cl          7.35766075724083   12.96080721691752   -1.66372728735878
C          12.07585414718685   10.56734187136869    0.58275176504773
C          13.37020219696385   10.07004753503783    0.87522857335480
C          13.56955889738821    8.68806872250822    1.06796035608688
C          12.44208830850842    7.87968838414538    0.96707437278510
S          12.43192548938486    6.14206289739941    1.12722514256150
C          14.87273832735365    8.11446734131137    1.33444512443492
C          15.17376514587122    7.05930971248149    2.14739116721870
C          16.54316388832819    6.71903429297741    2.11695025688739
C          17.30075104169596    7.48901867972701    1.28424723633116
S          16.30602183553356    8.67868741039051    0.51561777500122
C          18.75706039827719    7.40928128048339    1.00556661961215
Cl         17.18836026404496    5.43207866343938    3.06112586758662
C          14.32236328990578   11.11303478679430    0.98287599898353
C          13.80257170034264   12.35601503517611    0.77966521886075
S          12.08550753179240   12.30499348604614    0.44057835305133
C          14.49415252372677   13.60159889896231    0.78974050169284
C          13.96512398207716   14.84817773493686    0.64125805309603
C          14.93124566229109   15.88511238587133    0.66344133951661
C          14.72276595700821   17.27378910181560    0.56486395209456
C          13.41158353599279   17.85702090943487    0.36554768992355
C          12.92098539723778   19.01181076209922    0.90492248105073
C          11.61731468461361   19.31419177982443    0.45626683817928
C          11.10079642303686   18.41596088602899   -0.43095674425423
S          12.24552047779951   17.15121487006382   -0.72223912796721
C           9.77677797840714   18.42208088950170   -1.10257656790844
Cl         10.76225235529672   20.70811896394436    0.99624583493711
C          15.85738262919048   18.07899086264889    0.64960138792346
C          17.16399075181639   17.56676522202753    0.82023563104808
C          17.36822809984298   16.18072576837841    0.94434689592503
C          16.24022047388059   15.37465483031208    0.84797629362458
S          16.23440901306357   13.63739478261954    0.97976869650872
C          18.69389149709082   15.63511951611901    1.16554763874106
C          19.65676344529231   16.09436124340458    2.01624529218836
C          20.83641695050520   15.31899120155310    1.97149779197444
C          20.79324517370853   14.27549237292432    1.09461624456458
S          19.25382860779199   14.23055125819079    0.30129317877825
C          21.84331431576177   13.27140323012377    0.78759681749008
Cl         22.20780158994896   15.67741998144668    2.95219569967103
C          18.14479822401865   18.60166771862582    0.78019331264798
C          17.60993651898884   19.82631962004195    0.60416673815182
S          15.88523127099756   19.81434068907791    0.48180380745336
H          -4.52631080397857    4.05790778986531   -2.63103979825888
H          -3.38121662228356    1.73706036623144   -2.35123011129616
H          -2.01526650009065    0.41240244644868   -3.77397905975519
H          -1.85372908683706   -4.09397858150561   -1.87630390151931
H          -1.43789443581448   -3.59182297581761   -0.22680456133061
H          -0.15991548266426   -3.91835922219868   -1.39562648616724
H          -1.16913194175314    6.88384173562529   -0.43592010101102
H           2.40995078221797   10.14023375261368   -1.23690421351551
H           2.50634261486628    9.63775810574417   -2.92760771873763
H           3.64496259079036    8.97342306249305   -1.75696818103007
H           2.96460888005616    4.59095634829166   -0.66120984172480
H           4.65257833799431    0.14021913819085   -0.23179797158641
H           7.25719531307405   -2.36612457790732    0.43090849185378
H           6.22338771302492   -1.55568348954296   -0.76709390683867
H           5.78749843708289   -1.52712044360691    0.97401651924071
H           9.46123898333949    1.57258440412516    0.92353998838132
H          12.95956403243293    1.06092122511382    1.90442292413110
H          11.67992792602194    0.86930775382369    0.68505234127539
H          11.25534861629480    1.12064178654638    2.40876406038178
H           9.17426560675215    7.47861754382373    0.28282030919733
H          10.09274173075227   11.88020172541225   -1.26554656264010
H           5.26973906134929   11.48589997713983   -0.50278269360699
H           5.51354249579883   11.52010201356942    1.24689344565083
H           5.32693622261387    9.97167825651619    0.42528551793358
H          14.46149165107059    6.55672419233859    2.77433980988831
H          19.21419453151937    6.66991648893798    1.65853384703749
H          19.23209035402714    8.37525017117727    1.17142626522262
H          18.93463097970579    7.12169764845393   -0.03071510004295
H          15.36032290307488   10.96256468851289    1.21609479639499
H          12.90868452276221   15.00814990039688    0.52915570971721
H          13.44534314566833   19.61352062148903    1.62347276220596
H           9.16580600711594   19.22632093124425   -0.70013976210088
H           9.26479185842958   17.47311955877139   -0.94920578911844
H           9.89128876868222   18.57126113708097   -2.17633680577460
H          19.52434957994177   16.92734549408454    2.68168788721859
H          22.11982080667669   13.31506621850031   -0.26535869724994
H          21.48334272829491   12.26494679041475    0.99800764139601
H          22.72525598032797   13.46591259986687    1.39278538985264
H          19.20071940722604   18.41913697401904    0.85366141406324
H          18.12140873115933   20.76650345078664    0.53683449388469
