101
 SCF done       -213.657895923092          0.000622776377
C          -0.24842147626287   -4.59283667392870   -2.70591791659138
C          -0.13251535066623   -3.24906255173935   -2.69324391108685
C           1.14368931776078   -2.80573094354738   -2.23969484379646
C           1.60548447518683   -1.48643784118534   -2.08742889600429
C           0.77737663525354   -0.32225938230014   -2.33547810434200
C           1.15436759814072    0.85971003798031   -2.90653778004727
C           0.11331736661683    1.81253857692633   -2.92863506085772
C          -1.05739824572439    1.38493668156264   -2.37347801156426
S          -0.88363999708175   -0.24390627214166   -1.81357928568941
C          -2.33974639634458    2.11739495119669   -2.22402617021074
Cl          0.32595865586343    3.38393575995544   -3.60071151660116
C           2.92413591096436   -1.33532101616073   -1.66393610255611
C           3.77417080354400   -2.42802568529322   -1.36519775921013
C           3.29540547588477   -3.74983510814162   -1.47148143830283
C           1.99293821765980   -3.89911060118446   -1.93593766618422
S           1.17369271525130   -5.41727424372074   -2.17759085644528
C           4.12052018977834   -4.87384292694901   -1.08063447397495
C           4.93098863761694   -4.97124512859149    0.01512691684038
C           5.58887185339365   -6.21701128470986    0.09621410161748
C           5.30077514034443   -7.07390910179987   -0.92694470700322
S           4.17791524496743   -6.33933641470639   -2.01992890861783
C           5.81315474545626   -8.44704325034195   -1.16112072678968
Cl          6.66127919318438   -6.60599829198814    1.38643266026178
C           5.06849623888804   -1.99690480418806   -0.98996995881612
C           5.19644410862804   -0.63634279482409   -0.95452774897021
S           3.72744727126123    0.18769257495258   -1.40554215590738
C           6.38712831775894    0.06801384863597   -0.59899229765765
C           6.67246524295114    1.40126774483974   -0.34626059010058
C           5.79106881480320    2.58286789527716   -0.33656539237636
O           5.78043891769251    3.40909984628769    0.53385650053997
O           4.99848076659071    2.62850426853833   -1.41144563425903
C           8.05022898809792    1.37375363625656    0.01701208671876
N           8.51735891059607    0.14813414716386   -0.03301350045642
O           7.50558709225876   -0.65320456464309   -0.39550859152576
C           8.90152449371714    2.48499882856852    0.35456051458778
C          10.17623447600827    2.50085947697611    0.88043745854015
C          11.05210123949094    1.34701563291694    1.20742954427888
O          12.10435617181414    1.14121231236165    0.67404823211524
O          10.51777585371880    0.58064997211543    2.15149303183527
C          10.48213395867466    3.88856284882350    0.94156695383443
N           9.46327002358695    4.59107881199030    0.49316663433346
O           8.50022381119142    3.73835195670656    0.12165021709357
C          11.68181742128756    4.49448412905150    1.45884622368487
C          12.20493296263785    5.77527038753386    1.41886043423468
C          11.77769000804529    7.00307522137832    0.69610271051724
O          12.56280206127353    7.88686531483251    0.47000538414634
O          10.51550111883799    7.09182976089384    0.30062715664265
C          13.43034549579050    5.64009863516455    2.15732691937370
N          13.56838515624573    4.40049122935211    2.57329220110763
O          12.51044083057095    3.69577413490072    2.14698073433554
C          14.42867477518651    6.61929955971029    2.49923508595846
C          15.73148880540194    6.33171876871904    2.77617519958190
C          16.48571758742823    7.46936009866702    3.15726579048840
C          17.85816529670654    7.54110690074519    3.46488389797002
C          18.71824671436535    6.38536581392349    3.30911973201765
C          18.72742116178588    5.48494926184238    2.28283738208391
C          19.70722068371805    4.48210423143928    2.44810707433084
C          20.44443215231701    4.59566162697942    3.59036975088209
S          19.93126588690233    5.98198318800867    4.49201040307301
C          21.54245410024524    3.72460270472381    4.08067226053990
Cl         19.94106214463845    3.22743014064951    1.29106273755719
C          18.33432162069581    8.77625562823667    3.89088476660079
C          17.52548140199848    9.93605321868118    3.97055235146339
C          16.16660853479368    9.87564604562997    3.61844003927560
C          15.67603111481665    8.62913416994405    3.22984315327374
S          14.04598553745665    8.30160133944695    2.72019028640187
C          15.29557082968058   11.03446891501523    3.63926441873910
C          13.99178376469127   11.08982903118660    4.03989082938139
C          13.42385998332318   12.37167366765338    3.87677290741003
C          14.26787351445891   13.30168611791252    3.34480058975435
S          15.81453805434138   12.58695473375975    3.04036247396316
C          14.00127316361291   14.72757883995411    3.02737248129007
Cl         11.79823929307855   12.71918044313055    4.32294267044870
C          18.27045994512775   11.05885284008546    4.43911685893570
C          19.56651607690376   10.77108604267590    4.67163266265356
S          19.97975219180638    9.12439883266106    4.34847357915022
H          -1.09753307734185   -5.17580380989661   -3.00458946539329
H          -0.91806274939393   -2.58551218732366   -3.00244741928961
H           2.12196093073259    1.04384192828174   -3.33430036383019
H          -2.23968761040169    3.11772467355706   -2.63773309483563
H          -2.61782343742082    2.19517005871893   -1.17344366167031
H          -3.14292963195675    1.59755240799944   -2.74529029109790
H           5.02380335484953   -4.20839404382993    0.76575798543553
H           6.34558572342308   -8.50177069276080   -2.11007782509764
H           4.99141514440106   -9.16134864077680   -1.19672435952164
H           6.49135900689226   -8.72709149914189   -0.35904572550041
H           5.88594475083213   -2.65853049423741   -0.77106231372763
H           4.41531378607517    3.40420785881478   -1.37381182387484
H          11.08425806276567   -0.18870578500531    2.32529355987872
H           9.96663746989135    6.29189114093719    0.44779298216575
H          16.12243885796837    5.33337356729456    2.72002011034645
H          18.09277912200962    5.55231743943766    1.41884740825728
H          21.28527386018040    3.28915587529959    5.04569503355488
H          22.45950460565847    4.29919985666403    4.20587804973201
H          21.72060208963052    2.92359459662676    3.36755779993839
H          13.45748600273515   10.26290374408534    4.46830792725688
H          13.92301387589812   14.87173923988805    1.94937208819607
H          14.80785051682752   15.36030557337865    3.39361068275271
H          13.06568636497356   15.03586317577479    3.48785813448921
H          17.84391198320864   12.03123416079027    4.59946740767981
H          20.33322619888676   11.43111995301649    5.02738118019286
