103
 SCF done       -204.690504799004          0.000345480067
C           9.66821895610685   12.96523172522297   -2.66574296852767
C           8.82652213355861   12.17640184913476   -1.96727442602917
C           9.24463086158270   10.81409877936473   -1.92559306635760
C           8.60339165836799    9.72376179604327   -1.31061870574744
C           7.33272880515484    9.84717095265560   -0.62187979061690
C           6.95452864346428    9.24610477492870    0.54359363267755
C           5.62329137009180    9.54587508610202    0.90626140535794
C           4.96634887754030   10.35769273942630    0.02896460380348
S           6.01588680150721   10.77993366280814   -1.28172586839801
C           3.57150163015873   10.86263028370652    0.09080965830674
Cl          4.90377032693791    8.92932078664275    2.34365921913423
C           9.24332915037694    8.48996911727712   -1.40157454475181
C          10.47012768774287    8.30366623935988   -2.09157122099361
C          11.10228380274409    9.39238457315252   -2.72805082739227
C          10.47039745314450   10.62694687661792   -2.60972614201013
S          11.03116991770638   12.12235130891981   -3.30953919891281
C          12.32597032104206    9.24576115092552   -3.48742746264344
C          13.37752814484975   10.11558395189105   -3.56058152922805
C          14.38814678083076    9.67683899042786   -4.44148091381891
C          14.12396291959460    8.48862504047519   -5.05974537182507
S          12.59195760816389    7.87920818738232   -4.53799814174725
C          14.95484635927672    7.74055748742692   -6.03604538887948
Cl         15.82952958323865   10.58025183641330   -4.70602602062819
C          10.90989403205310    6.96238315300131   -2.02199262543856
C          10.04177391490150    6.14733063940775   -1.35028150826669
S           8.64343611130411    6.99129568157749   -0.74372854776844
C          10.18397489858292    4.74708674101933   -1.11490450252261
N           9.21675160232984    4.10294230335727   -0.49130067208222
N           9.25167176391082    2.83341505356927   -0.20913779473050
C          10.25031064164577    2.04133713526166   -0.54373556527751
C          11.34976481312417    2.59811705786986   -1.26685164734704
C          11.32534908958238    4.00726010439481   -1.55125907971289
N          12.40484492301536    4.28697185969806   -2.25209572521275
O          13.04923448936772    3.12930652572478   -2.40563514433226
N          12.43332699121859    2.10362436359045   -1.82946010685749
C          10.20380139486223    0.64874639383053   -0.17493435320242
C          11.35846030431733   -0.04686480243931    0.23512615349068
C          11.32980729873819   -1.45098669249047    0.56564254910906
N          12.47197992122925   -2.09235607806211    0.81987200545729
C          13.59742500510821   -1.42257598546161    0.86096498581265
C          13.59644679282068    0.00531184288758    0.72211692146121
N          12.50148353010510    0.64133692832347    0.39855815692807
C          14.78337212729255    0.74745755682612    0.94512584704931
N          15.76001569891236    1.31665472144939    1.13070850204644
C          14.81190969836732   -2.11933032827780    1.06916092992134
N          15.81588679249107   -2.64556397508801    1.23763371734840
C          10.10752082557143   -2.17757036251982    0.59298801894234
C           8.95237905585492   -1.46342580612115    0.20854742839107
C           8.99785380653259   -0.07241846746397   -0.17547528527376
N           7.79617096284935    0.37618245431933   -0.53879432001529
S           6.72505569982406   -0.80166573531838   -0.38434881568708
N           7.71899811889465   -1.95969253187978    0.13100891543665
C          10.04106697309822   -3.53564820261029    0.96131063902329
S           8.49595300312941   -4.43566405108631    0.81496213867342
C           9.33000855715479   -5.81267633184503    1.39295273333662
C          10.68295713517179   -5.49234886557984    1.66241487563523
N          11.03827255268843   -4.25283231611408    1.41735555805529
C          11.42256692602443   -6.68350577437099    2.17913168257325
C          10.34047359241919   -7.72089445253425    2.16353495712336
C           9.13594383991206   -7.16850570895838    1.69809243794452
S           7.86431614204533   -8.32411428684987    1.64829503968035
C           8.94956406483626   -9.56272598219880    2.25601280294283
C          10.22986943993200   -9.06298943056866    2.47878283637641
C           8.52889612414514  -10.89352385564420    2.46632999786579
C           7.28688015548386  -11.37374521721750    2.19954741665400
C           6.88110304536161  -12.71157734212592    2.40186494698552
C           5.64269275678146  -13.26446383115427    2.11303050186874
C           5.54858192856932  -14.61748155983292    2.41651076909683
C           6.73289097124848  -15.11475337851132    2.95143894296315
S           7.95979886466685  -13.91665331520537    3.07541686093997
C           6.77062510593968  -16.48721070921570    3.31027292213680
C           5.62943022169723  -17.24375260388917    3.10132940028039
Ge          4.23965720843078  -16.09038469070166    2.31532804169168
C           2.65687493025287  -15.83074287764531    3.48290560366907
C           3.76000127509450  -16.58462680919572    0.45462029218570
C           5.80898144332755  -18.57683394375113    3.50306304172810
C           7.05501120600865  -18.81311962548323    4.00147774245237
S           8.05542137424997  -17.41305369551903    3.99714987222327
H           9.58555439196491   14.01929944510585   -2.84512574248950
H           7.93779089490926   12.54166897148807   -1.48798257764640
H           7.60213123544692    8.63734526441912    1.14600022666916
H           3.10105679406027   10.52125668860550    1.00947474895285
H           2.99347363596939   10.49895649491487   -0.75842111165222
H           3.55470131423145   11.95161954223729    0.06603049635117
H          13.45740674572103   11.01769567962449   -2.98351947998757
H          15.88332226657090    8.27716295791417   -6.21424790871655
H          14.42582000372873    7.62412822523058   -6.98154691456719
H          15.18654002471827    6.74570670557510   -5.65722000365929
H          11.82952589284148    6.59376553468293   -2.43697940897983
H          11.81818381005033   -6.50845560935350    3.18125927511405
H          12.26370399347375   -6.94673694181110    1.53548998716687
H          11.02880748610351   -9.67836358563174    2.85123311766540
H           9.27867626702299  -11.56622680512388    2.86382188078986
H           6.53647639853610  -10.70609671422617    1.79440911521651
H           4.84032244481305  -12.68455455472339    1.69034518868710
H           2.96635333112381  -15.55069968730314    4.48476396627057
H           2.08026083180156  -16.74877287022742    3.53994692980895
H           2.02038627267518  -15.04781629631300    3.08241766581438
H           4.65534050353615  -16.70824474720301   -0.14633533448077
H           3.14379941126597  -15.81072799409852    0.00758431813992
H           3.20348033802773  -17.51668270855676    0.44645852851945
H           5.04832507737267  -19.33421880570319    3.42789992380893
H           7.45607169829663  -19.73434627898908    4.37691569067478
