158
 SCF done       -300.047023221673          0.000568320365
C          -0.81238271728973   -5.66417685766477    0.41342112149406
C          -0.41284378497598   -4.97117607461376   -0.67100220108926
C           0.81258344475195   -4.27047470222689   -0.46501101465361
C           1.50664625764291   -3.44264627071102   -1.36485838559453
C           1.01529758458884   -3.13586681522558   -2.69431619339737
C           1.74022631395109   -3.02314950637652   -3.84621246383187
C           0.94966353663681   -2.64943951032955   -4.95338495525334
C          -0.37057144382285   -2.45661523772096   -4.66769483870108
S          -0.66047608232651   -2.75775013228634   -2.98979040928345
C          -1.46718803596374   -2.07076952830531   -5.59239207489670
Cl          1.60119936072859   -2.44672263286427   -6.53361562067061
C           2.70491357787518   -2.89808637658661   -0.91098297200113
C           3.21690484900069   -3.11532718584440    0.39145692962526
C           2.51181386063680   -3.92794299845323    1.29919464640534
C           1.32968338894389   -4.49848729724765    0.83196072946060
S           0.26957761418036   -5.52964288954396    1.75500742255724
C           2.95705847794692   -4.15080864159411    2.66028670924240
C           2.88958400525521   -5.30427981128315    3.38696331643390
C           3.35556790878527   -5.14672984451170    4.71058584938379
C           3.76975669039834   -3.88478145458282    5.01934648714628
S           3.59784862031473   -2.85496544015978    3.63747426611897
C           4.31035043714574   -3.36720267190610    6.30193664862198
Cl          3.38912747434276   -6.45290096680782    5.83254113108444
C           4.44888359455630   -2.44317123142606    0.59071176001191
C           4.85818916487779   -1.71351466815699   -0.48685652614215
S           3.73778523971324   -1.83390420821625   -1.82353563112487
C           6.04573024550313   -0.92863787159117   -0.61879004831510
C           7.02574979136400   -0.75845966426664    0.31722990735288
C           8.09402703057046    0.07649208179187   -0.11023213460147
C           7.86441716525700    0.53746524477966   -1.43298964415115
S           6.37397029430745   -0.05906555036451   -2.09808840236145
C           8.70032160986415    1.36957551621125   -2.16660910344094
O           8.22701455623124    1.65526906875754   -3.41068517854071
C           8.90521259400935    2.53070057706477   -4.27453635226647
C           9.88858839855537    1.78326161941973   -1.54029703684435
C          10.11904111466667    1.32293391998868   -0.21741547439065
C           9.27816679779850    0.49832927193585    0.51906499570798
O           9.74732580860867    0.21824100689589    1.76664160512625
C           9.03292385156777   -0.60319443540378    2.65344190129865
S          11.62333833253716    1.90025128214704    0.43590266595139
C          11.95846274515338    2.75387016444784   -1.05114919869903
C          10.96615201445590    2.59990325267514   -1.97748526802681
C          13.16427641962623    3.50497472936290   -1.20822244064493
C          13.57123727538449    4.20687805996515   -2.30616719415193
C          14.82882796865902    4.83701914667516   -2.14630067717530
C          15.52326514532416    5.63359600045131   -3.07918650634633
C          14.91140780893976    6.00157347322459   -4.33998228742208
C          13.61781374126458    6.38164044481888   -4.55588677499040
C          13.35107746695990    6.66233269734691   -5.91344850868815
C          14.42083386128227    6.50295315353623   -6.74405911622053
S          15.80663250827949    5.99771829194979   -5.83458515201729
C          14.49814977862949    6.70602654404229   -8.21297493683924
Cl         11.79265253309047    7.16145736590081   -6.45686130481478
C          16.79769233178403    6.04811750490074   -2.71288933333459
C          17.37200145698345    5.77082528228349   -1.44805431429036
C          16.64734159246006    5.03572437822320   -0.48927455055325
C          15.40034431343107    4.55977513880879   -0.88076875257128
S          14.33128071143461    3.58750944593147    0.09183603129107
C          17.19112420593219    4.79682922644792    0.83218677739895
C          17.87246264609470    5.67082744399203    1.62983250195958
C          18.26842562578688    5.09261760147972    2.85525959115810
C          17.90509004000380    3.78652316329692    3.00736898614825
S          17.03956378538933    3.24468901451082    1.60920475869099
C          18.16254327858610    2.87469271571402    4.15054800610319
Cl         19.13889269469858    5.97908179249428    4.04888732135444
C          18.68830156131446    6.28680480459054   -1.34290454422639
C          19.10895128105534    6.94982684464783   -2.45587052609835
S          17.88194704090429    6.97912813796582   -3.70843738267565
C          20.37424689913819    7.56672068135200   -2.68548630390419
C          20.82051300126549    8.09197631491748   -3.86229813228365
C          22.13487807633592    8.62867891342822   -3.79479432972669
C          22.66041452516406    8.49184526058107   -2.48330269893352
S          21.54911288757702    7.70792417713486   -1.39692274175659
C          23.91175039450509    8.91683744759416   -2.05617885613020
O          24.15168930320111    8.66667545056728   -0.73897785512202
C          25.35087952698476    9.05916259809587   -0.12275563990359
C          24.73635052676798    9.52643492124832   -3.01847494788565
C          24.21631317162248    9.64664264650986   -4.33341261921208
C          22.95951314624851    9.23348690765930   -4.75765507488859
O          22.71933209656513    9.48283565617333   -6.07363565419671
C          21.49698085906382    9.14091567157824   -6.67563823975353
S          25.33803788141788   10.39393138565626   -5.42976400677811
C          26.50551471225322   10.56199539070653   -4.14143833238893
C          26.04918103897329   10.06891011038775   -2.95255939694860
C          27.77844688833748   11.16392025265786   -4.39194042199487
C          28.71766617434908   11.55157605082789   -3.48226276231205
C          29.87842588061044   12.11895130552143   -4.06620046908250
C          31.01367300653010   12.63975794286962   -3.41754003285423
C          31.12299230286428   12.72198028326633   -1.97459097301686
C          32.22760161192258   12.50472933625261   -1.20298671304227
C          31.99353071252281   12.74374644257940    0.16893008109567
C          30.72732291935272   13.15446070680393    0.46472298388360
S          29.78254122234062   13.23902293675879   -0.98453786712922
C          30.14404055225270   13.50582574275864    1.78433273316335
Cl         33.22023977454633   12.53038275205750    1.35889799018599
C          32.03624271294690   13.11040588261478   -4.23836122951722
C          31.96299933846015   13.11493828411482   -5.65113928915808
C          30.81911773292652   12.61617181312033   -6.29859769406962
C          29.80884309809198   12.11774033799026   -5.48069771548639
S          28.29173153360536   11.46781262241864   -6.03570824796422
C          30.66439811933016   12.62307571766355   -7.74072825661495
C          30.11631930734026   11.65008948736948   -8.52529167339972
C          30.07215797000220   12.00902398392526   -9.89018674471216
C          30.56677680949166   13.24961672489596  -10.16598207909587
S          31.11573293666809   14.00248395690316   -8.70648764423012
C          30.66725571496676   13.94436599877828  -11.47436603136772
Cl         29.44307748336860   10.95258293677744  -11.09583146958091
C          33.14605933569724   13.65741133878161   -6.23523027600430
C          34.04657617276266   14.06492831238576   -5.31928434986674
S          33.53522424398940   13.80962513621664   -3.68775065712231
H          -1.68908636922977   -6.27204711113961    0.52169566088517
H          -0.95918636217068   -4.95647274998786   -1.59540818769703
H           2.79169968525460   -3.22827574139686   -3.92037079254322
H          -1.10161518646789   -1.34664377128112   -6.31869112766784
H          -2.29906749753006   -1.63985207746053   -5.04062511758453
H          -1.83054129143441   -2.94231698189242   -6.13966009427624
H           2.55253922935749   -6.24536902325074    2.99477470706600
H           4.22127845441104   -4.13136476761865    7.07001657819637
H           3.76510478910822   -2.47888979080795    6.61750685610088
H           5.36119188602415   -3.09653804280213    6.19661407534026
H           5.01461274900529   -2.50774019914405    1.50050828201352
H           6.96070739236010   -1.23015846907658    1.27763062129205
H           8.26888988623023    2.61041382399746   -5.15563929447998
H           9.87796155055722    2.12823583969674   -4.57291360341224
H           9.02615890642027    3.52265361948142   -3.82967717803392
H           9.64124631227096   -0.64204205146207    3.55686063101121
H           8.91580068291504   -1.61648657127783    2.25770166109914
H           8.05524822569261   -0.17738104142332    2.89827399330751
H          11.03031346524076    3.06413309054046   -2.94162143226607
H          13.00821778335009    4.24937504623318   -3.21924480989400
H          12.88941352202981    6.50367880197143   -3.77578506677320
H          14.79011079320514    5.78329275129666   -8.71347997955149
H          15.23853308125013    7.46772100031508   -8.45535741683906
H          13.52882550895807    7.02189020213312   -8.59096457558600
H          18.05295911342284    6.69994511832195    1.38029465220892
H          18.80611067782747    2.04970589885927    3.84554700300594
H          17.22932687048723    2.45248824773880    4.52060893837544
H          18.64946407622122    3.42195845529382    4.95388594099877
H          19.32262536649288    6.14469998857458   -0.48740511879749
H          20.19823692520802    8.07117474507163   -4.73670471384013
H          25.24546698465552    8.76039344252260    0.92003715995243
H          25.49301716214648   10.14286486145335   -0.17229634213882
H          26.21360938657564    8.54426062691056   -0.55613375073913
H          21.59123048098894    9.46390369823163   -7.71217365302654
H          20.65796123014740    9.66769383102240   -6.21160818676582
H          21.32363605008618    8.06097871034009   -6.65173201131327
H          26.66120632424204   10.09472506759117   -2.07269287424488
H          28.58485913173175   11.43912849847233   -2.42304341191281
H          33.16937710293346   12.15578947598080   -1.58293238228542
H          30.87062366787341   13.30882675592300    2.56860015039380
H          29.24486931626302   12.92187466036436    1.97655992754313
H          29.87129865437229   14.56070640213891    1.81426366878487
H          29.78357256537381   10.69647148597082   -8.16040848646194
H          30.32832691114634   13.28124758748271  -12.26639364573301
H          31.69605633877759   14.24125387072529  -11.67467252811525
H          30.05163729781973   14.84369512624019  -11.47969685626026
H          33.30842001425381   13.72855573548673   -7.29438946333831
H          35.01019079027162   14.50290717086672   -5.49106140257155
