88
 SCF done       -187.181219431581          0.000384597846
C          -3.00705867656039   -2.18325924949808   -1.16058322274917
C          -2.35528045306219   -1.82756340916093   -0.03563362902658
C          -1.11439519943479   -1.17395417394173   -0.29386065681785
C          -0.19243557881518   -0.65516134246983    0.63234106758817
C          -0.41271216791901   -0.68337897555099    2.06555375848635
C           0.50504277971494   -0.93132666008461    3.04512166371151
C          -0.03788030575047   -0.81950924389215    4.34369040639509
C          -1.35748595507395   -0.47596271651925    4.37759692319818
S          -1.96078444758968   -0.29274446667986    2.76526450777996
C          -2.23505323625937   -0.26174445436637    5.55578120047304
Cl          0.90377225616557   -1.09792568176854    5.75810873126957
C           0.96014106229204   -0.08035589766278    0.10472647081238
C           1.21692458951721    0.02194137255756   -1.28446003894498
C           0.28515319665167   -0.48139229387009   -2.21239656278424
C          -0.85408044858788   -1.08291839455083   -1.68189152501421
S          -2.16191192937501   -1.76697101650833   -2.60910331181534
C           0.46558860597231   -0.36536978300197   -3.64544062251975
C           0.15124152227496   -1.28220720210952   -4.60691406717812
C           0.40096182183561   -0.81276650197342   -5.91484606136017
C           0.89090560024647    0.45874929179968   -5.97650772965864
S           1.06615873460885    1.09998682818429   -4.37777152196995
C           1.25701667608739    1.26121262526693   -7.17077136583589
Cl          0.10293240063426   -1.77965008958775   -7.30815394362863
C           2.45775630194577    0.65467994469576   -1.54498182230353
C           3.11463947963978    1.05871596942406   -0.41907848460510
S           2.23563087238291    0.65044024375231    1.03758905060270
C           4.36776338305831    1.73791085545952   -0.34147910353099
C           5.19192255720884    2.10837914727109   -1.37859543030357
C           6.36100270221462    2.77119898079900   -0.97320212001124
C           7.35252071901860    3.30972780594464   -1.94830092825839
C           6.42455936919466    2.91069733605197    0.39968882420394
S           5.02508041850411    2.23269639528875    1.18053861358724
C           7.45395767540719    3.54316083997178    1.19580730711366
C           7.14447881362130    4.39876943271555    2.26165447462636
F           5.86159090261701    4.65284428710894    2.55025195899744
C           8.11944508371480    5.03180122359394    3.01052944394912
F           7.71638978628531    5.86564217259321    3.97937258965457
C           9.48923868915385    4.85754933942532    2.75732688763146
C           9.79574535710242    3.98592668497478    1.70181107615723
C           8.81982260434573    3.34340761392337    0.96112190530501
F           9.21272834022586    2.47466781246423    0.02075132185162
F          11.07870973606507    3.73495676888299    1.39884791523128
C          10.51294313271465    5.52525300657580    3.52601630682866
C          10.40776342486624    6.09695936819071    4.77697738645767
C          11.58404531946674    6.70197002845465    5.22817505969174
C          11.72391602220327    7.35139214503046    6.55880956951437
C          12.62768023797429    6.57339907932361    4.31663037061829
S          12.11501188954935    5.70945568048970    2.89516335179056
C          13.92069806461136    7.13398653264043    4.42204574533757
C          15.05466104550262    6.78332735028741    3.75461942544678
C          16.16027632224958    7.76639512867235    3.61314363247026
O          16.29809977127875    8.79586755883380    4.22422591012684
C          17.00497340256123    7.22112053984262    2.51871600701587
C          16.53133522647765    5.94998987178358    2.14188103672204
C          15.41006258123551    5.59439824545882    3.01129516350637
C          14.98652211278732    4.32015647774380    3.27623551085183
C          15.45494743214882    3.17594845189431    2.59787441322400
N          15.80551262609855    2.22093197997205    2.06789404502224
C          14.11180340179081    4.01297968127206    4.34094737561376
N          13.45010210836124    3.73333774912437    5.23555887513158
C          17.12866820800087    5.24344503698614    1.11316158754891
C          18.20929809244689    5.82637612789808    0.46713329436189
C          18.70082621255331    7.07858597568218    0.83283144589289
C          18.09105709302584    7.78546380611757    1.87210278313214
F          18.56170373363590    8.98031895879925    2.21190947948158
F          19.74687462121627    7.60212781577289    0.18945364847279
F          18.79615209533098    5.17396620956292   -0.53773923981922
H          -3.95069238835034   -2.68563967014830   -1.24448812943069
H          -2.73111802669695   -2.02348654919676    0.95098039834111
H           1.52325703706096   -1.21888322918122    2.86070582807842
H          -1.70264393757790   -0.53810316695130    6.46248455071355
H          -3.14015401498101   -0.86214707906805    5.47599688546877
H          -2.53186290406400    0.78468871686856    5.62798819132206
H          -0.21290255748020   -2.27128781504149   -4.40149927209050
H           1.03514711436668    0.69563931825852   -8.07218516619372
H           2.31898296257006    1.50580795676616   -7.15993760035527
H           0.69810573934400    2.19609597644286   -7.19135899408813
H           2.85124296238724    0.80217176582446   -2.53239322511181
H           4.96057060181228    1.91383066676830   -2.40972794629115
H           6.84591250883723    3.59469223410709   -2.86724978224222
H           8.09570422975958    2.55075026495677   -2.19064613569181
H           7.87126927282979    4.17703531240539   -1.54654917609369
H           9.50885736243383    6.07429236690287    5.36398157614050
H          10.74847318718676    7.48319544585233    7.01809687154586
H          12.20999917190821    8.32158556309024    6.46991591729583
H          12.33563862222737    6.73069037604154    7.21296175706566
H          14.00750005665396    8.01881740854439    5.04605994029714
H          16.78288518242388    4.27500991132834    0.79073737668152
