100
 SCF done       -198.755406673017          0.000366244903
C          -2.56786670404159   -2.10800652614123    4.45787616162978
C          -2.13145106884736   -1.74089881363018    3.23574761942882
C          -0.71181396508668   -1.63907713942075    3.15971876027465
C           0.08034014716480   -1.29682551444198    2.04952932348887
C          -0.47491494877901   -1.03360041386566    0.73578129947914
C          -0.08371875851085   -0.07919499022685   -0.15796957582865
C          -0.79856514538958   -0.14269745169877   -1.37364837376835
C          -1.72716658554938   -1.13958460865448   -1.43358874676730
S          -1.73450254620110   -2.02679812619148    0.05352502663356
C          -2.64200671526258   -1.49921584803878   -2.54636647008145
Cl         -0.50626599781868    0.95867673946304   -2.66558446146902
C           1.45526560422222   -1.23356024949788    2.25957189310921
C           2.06132658683185   -1.52019202633875    3.50720285236448
C           1.27111853754048   -1.90231500739753    4.61076138663311
C          -0.10446493308411   -1.92551454114022    4.40697317907005
S          -1.29869092758062   -2.34982732793626    5.60403562203242
C           1.88185068302401   -2.27469839268636    5.86967087201613
C           3.00301515158047   -3.02998631523837    6.06608729689136
C           3.31419996241465   -3.19722057082965    7.43239233314634
C           2.45195001692836   -2.57511106877113    8.28809224916684
S           1.20972442354824   -1.76561206822895    7.39477660847276
C           2.47953497691231   -2.53589686833771    9.77177956285175
Cl          4.67339965505268   -4.11483057610539    7.95723266427210
C           3.46634079747539   -1.36759259239580    3.45635059044153
C           3.93565197457354   -1.02302736201561    2.21925782230425
S           2.64559765724200   -0.84329927117633    1.05064051904618
C           5.31046963025124   -0.87371551396366    1.84427220846738
C           5.70954132098147   -0.48746265402960    0.57052840511458
O           4.72775954694217   -0.09132434107959   -0.31615650953514
C           4.48672589935800    1.30649203537189   -0.30005695967229
C           7.07417684550573   -0.47612052326286    0.14204673199191
O           7.45452208393856   -0.15301720731078   -1.11368512711672
C           6.60846585300939   -0.38565347105792   -2.23036458232728
C           8.11045865731422   -0.74077158026117    1.03801661314334
C           7.73453435641492   -1.01189822295286    2.37310883255975
C           6.35647055968204   -1.13041910270917    2.76999116631364
N           6.34758982040850   -1.45490356625597    4.04713893509999
O           7.62130935521924   -1.53414591044705    4.42256052451847
N           8.47287406421255   -1.27544129051277    3.43409304429851
C           9.51343693402497   -0.73837017985758    0.69749054037533
S          10.66118257708788   -0.10107995517832    1.82226257820433
C          12.00197521669144   -0.48012078819549    0.78512183482623
C          11.55442769317587   -1.08145845485804   -0.38246510707525
C          10.15337375711042   -1.23197947722109   -0.42467085934661
S           9.25720595157601   -2.16942375758788   -1.60926209242704
C          10.28425447824487   -2.42508047634129   -3.01546581822773
O           9.83935065178133   -3.08959362572774   -3.91339296631467
C          11.67113883285951   -1.83808777825758   -3.13504020765344
O          12.19673612253202   -1.74269158738744   -4.20860008504965
S          12.65105016375021   -1.45417624464434   -1.70630786532743
C          13.31277079395695   -0.14979269119381    1.24280895258197
C          14.48199628056786   -0.57814584649700    0.73682632830408
C          15.75696477869981   -0.17407735956161    1.29496239783796
N          15.76950814637158    0.72341245456724    2.28604953263346
C          16.95011786354355    1.07395140324658    2.75907595283444
C          18.13634953926048    0.54875466515749    2.27106193293782
C          18.02803651145626   -0.39567326175982    1.24197937173488
N          16.83374028348524   -0.74055861495910    0.76362150300696
C          19.20841698131157   -1.02420478036635    0.67677967948934
C          19.10751492931511   -2.01250867730023   -0.22516194186188
C          20.12846428060863   -2.76703098270025   -0.88647890914052
N          19.81529340084337   -3.80913612106948   -1.61270927621456
C          20.95793571956474   -4.30091111592447   -2.14399265507442
C          22.01313496307705   -3.52502864409148   -1.77806446299307
N          21.50576314610495   -2.52871315061714   -0.96160670307012
C          22.30124793455154   -1.55860276743263   -0.35117421064398
O          22.16333533958743   -1.17387627779174    0.77691372567354
N          23.31160251052900   -1.06882887543274   -1.17671977543966
C          23.38335834119333   -1.01443693885471   -2.55529922277950
N          24.42960998554950   -0.37925527843007   -2.95645484243892
C          25.09964847594761    0.01467795097253   -1.82880886534232
C          24.42295459743682   -0.37994142152573   -0.72270523860414
H          -3.58136122807146   -2.25285530896800    4.77717634695071
H          -2.78838029446834   -1.53845274784865    2.41067927365420
H           0.66043598957318    0.66774285803175    0.04495194799085
H          -2.52786512577984   -0.78664300056514   -3.35948246432617
H          -3.67806883581676   -1.49184172910305   -2.20997535803178
H          -2.41821760173775   -2.49844142394219   -2.91961064381588
H           3.56743308677210   -3.48912946076564    5.27617888532218
H           3.31480916110457   -3.12765176262868   10.13766798015895
H           1.55327632817840   -2.93576235029113   10.18269684599803
H           2.58902008870578   -1.51168448430775   10.12705853440139
H           4.11863103180111   -1.48779610558684    4.30022142244774
H           3.69568638551842    1.47949497137559   -1.02658033689751
H           5.38233046034555    1.86999746040559   -0.58087977214236
H           4.15487839967094    1.63951732618528    0.68820591984948
H           5.94612836044363    0.46029412663283   -2.41884509015180
H           6.01687642707338   -1.29238012565594   -2.10524782412500
H           7.28104502826023   -0.50511891321338   -3.08005596491912
H          13.34940112089222    0.49400648021035    2.11204146418718
H          14.55082476092919   -1.26257127426531   -0.09317250516010
H          16.93891799974336    1.80382987827565    3.55944086548651
H          19.09532799764904    0.84267382217382    2.66519246467309
H          20.15358191317880   -0.66629359987716    1.05309961221583
H          18.11452073979061   -2.33923436807183   -0.50639646322291
H          20.95072074322378   -5.17784002757780   -2.75916042824337
H          23.06107600511752   -3.61498071841543   -1.97817633814442
H          22.63118322378137   -1.42566277245332   -3.19809541978212
H          26.01925505138595    0.55815542249869   -1.90222111950910
H          24.60947972987249   -0.26374523609368    0.32402564255738
