106
 SCF done       -197.259823011797          0.000412083153
C           0.27250616651078   -4.86198088867474   -4.29204468945715
C          -0.02526821256179   -4.16498190267593   -3.17788299221808
C           1.03760304668300   -3.31514249398826   -2.74990367221901
C           1.08205180997769   -2.46614933222739   -1.62939179757007
C          -0.00616707150614   -2.36749020110880   -0.67530263641062
C          -0.47233875145325   -1.24461706591573   -0.05583986026950
C          -1.50905829916661   -1.51759870020929    0.86288008517753
C          -1.84189157057936   -2.83533365733460    0.96882293900849
S          -0.85575688585332   -3.77701028434659   -0.09937654883068
C          -2.87165769343523   -3.47297630873907    1.82822669334021
Cl         -2.28131048784640   -0.27237409736178    1.76888072180148
C           2.24304655012878   -1.71846662722616   -1.45631997089561
C           3.35899834248847   -1.80405905192020   -2.32574504454566
C           3.32368692118839   -2.66975904697081   -3.43554188733791
C           2.14688601617021   -3.39078653022147   -3.62380188107634
S           1.85320115125014   -4.53063687238072   -4.91027918202898
C           4.45156311795796   -2.83873270714567   -4.32940376223378
C           4.43299418446789   -2.99653182564974   -5.68514376377635
C           5.71958213996379   -3.20076963078872   -6.22949593550114
C           6.72802781938484   -3.21493703058466   -5.31200228066791
S           6.08363536240331   -2.95889466808710   -3.72516206620916
C           8.18434284719744   -3.41056399901476   -5.52705849957208
Cl          5.97687374363871   -3.41298513977170   -7.91957668065949
C           4.40515584570364   -0.94111077804956   -1.92128897589342
C           4.13186368221658   -0.24714724905822   -0.77730452215752
S           2.54434924337192   -0.61241558911456   -0.14087990830323
C           4.96647390261888    0.68390140253993   -0.10857553740948
C           4.68570543394065    1.35951203542916    1.07209395250305
O           3.49304482681977    1.15156079912356    1.67599502312424
C           3.23383522671576    1.85430616347452    2.86846007536795
C           5.72902658490620    2.20055360547639    1.48801825247353
C           6.81009983294787    2.18586367777130    0.63497637500957
S           6.54132786907687    1.11156027293366   -0.70733042164454
C           8.02306255218657    2.91109725683801    0.75796878534677
C           9.06831666858962    2.96378420228152   -0.13650447218361
C          10.13581687538407    3.76788192689914    0.27483747554854
C          11.36676352383759    3.97097269295521   -0.54090494206221
C           9.91250026460065    4.34193192659576    1.51892193381231
S           8.35949159026634    3.88122686242713    2.16392692560241
C          10.75302308899169    5.18758544963913    2.28401142315670
C          10.47147033668575    5.68009583860066    3.55750209293976
O           9.28636561572373    5.36040908414260    4.13350724712666
C           9.04033578343578    5.84546249047127    5.43220507099851
C          11.49689200001105    6.46843544764622    4.09214985319897
C          12.57482792801373    6.60307007605568    3.24242528195197
S          12.31431483604916    5.74008807821045    1.75975408839829
C          13.78194086501773    7.32118477281884    3.47200809547907
C          14.18146676449171    7.94374765308295    4.62040104227818
C          15.45127463247372    8.56376549544269    4.52107382302605
C          16.15888194611701    9.25466403198384    5.52310196960256
C          15.64983959300834    9.32577740512994    6.87822354905610
C          15.08331317943696    8.32174714469961    7.60950309999968
C          14.69081227972037    8.74223689019344    8.89880017844330
C          14.94397049147550   10.05536195966220    9.16647256394872
S          15.69640243396086   10.80467399257960    7.79789274125624
C          14.66846232848368   10.82324993045999   10.40715155415342
Cl         13.95149482025605    7.66913819737431   10.02786505129131
C          17.36751682618264    9.83157641616401    5.14613566286685
C          17.91887354537767    9.70406531696070    3.84934899865760
C          17.23519749453958    8.97330276947084    2.86020201584762
C          16.00484861410127    8.43429150212299    3.22424122784512
S          14.96548262711572    7.49071998099357    2.19140029959249
C          17.76855402311271    8.76535249038927    1.52772959767291
C          17.08810506616829    8.76708750502789    0.34460107138967
C          17.91385693861374    8.47010956361993   -0.76157978200345
C          19.21819914146194    8.22764678706268   -0.44612520103835
S          19.44756306152754    8.37595792269589    1.26373268820131
C          20.34735192880145    7.88165943128494   -1.34606055734473
Cl         17.30606082564930    8.42293489724184   -2.37230673066200
C          19.16104255703328   10.39601874818154    3.74118797875649
C          19.53764318528172   10.98562226439782    4.89351723269458
S          18.41684769840061   10.75310810056316    6.18839305636428
H          -0.34638025439977   -5.56237830049589   -4.81768074873593
H          -0.96970343029913   -4.23899140323702   -2.67195498500341
H          -0.11828315981443   -0.25221392939316   -0.26224396168640
H          -3.41540378523252   -2.70734384240202    2.37618222969184
H          -2.40882263315334   -4.15546740459649    2.54078478390677
H          -3.57519190404246   -4.04530639831698    1.22469546554196
H           3.54603828585941   -2.93744749927955   -6.28763462362638
H           8.52178824605621   -4.33221674522741   -5.05311380934453
H           8.74997088784812   -2.58558711374363   -5.09612959324444
H           8.39235006733808   -3.46698652408714   -6.59260835145114
H           5.33173013630219   -0.81998286309223   -2.45143606117983
H           3.95561860321846    1.59392200497781    3.64882768465773
H           2.23638790889122    1.54855767148327    3.17878292955484
H           3.25014762218607    2.93622339575590    2.70377685364066
H           5.71603931344186    2.80870442206772    2.37412656525404
H           9.05073162917205    2.42840334312443   -1.06980699557626
H          11.28889752890937    3.41630323076504   -1.47201350482979
H          12.25009329336140    3.62966172701385   -0.00144798235221
H          11.50903352411186    5.02654111541098   -0.77149247864356
H           8.05756654140171    5.46704216724421    5.70695231084101
H           9.02814744135055    6.93979945306094    5.45278829246719
H           9.78523852489388    5.47539839838760    6.14358146215297
H          11.46190865897532    6.93339486399626    5.05951620676860
H          13.58111215421684    7.97526617733806    5.50978368031601
H          14.98795239696750    7.30833404684787    7.26578700859135
H          14.07395023636587   11.70884013741343   10.18693614132278
H          15.59988902555758   11.15118914530921   10.86827127057559
H          14.12745790368724   10.19839352506830   11.11357367583638
H          16.04510203794063    9.00362105121363    0.24765451651076
H          20.71184596844956    6.87613725035261   -1.13599924519159
H          21.17625593285808    8.57440993994093   -1.20685929263121
H          20.01640871287467    7.92618430863768   -2.38067834023344
H          19.73489334649676   10.45303828611648    2.83529940544836
H          20.42096261137774   11.56486758180093    5.07825589841332
