133
 SCF done       -242.782003982308          0.000423577281
C           4.30267186107589   15.71832347498120   -3.55027838721654
C           5.62090225930357   15.44244266639569   -3.49263794011564
C           5.89224255195330   14.07607717604964   -3.18701771698591
C           7.14074592768401   13.44795986066094   -3.03404377905967
C           8.39810423812726   14.16442882239935   -3.13299204718311
C           9.55574543926765   13.74154611062986   -3.71976230017968
C          10.60853508385231   14.67205600159070   -3.58430739349786
C          10.28305783126170   15.79840209907668   -2.88711165518125
S           8.62606262872637   15.72616694686804   -2.39233094757738
C          11.13480007387982   16.97199866493267   -2.56724278933466
Cl         12.17307728063640   14.39379757276328   -4.24611627197360
C           7.12411028088814   12.08150213057772   -2.76270751817958
C           5.92576307522095   11.33673954753936   -2.61140685368922
C           4.67390161248320   11.97083458981293   -2.74198551355682
C           4.69777812168356   13.32927813933852   -3.04560116738380
S           3.29613480475235   14.34584966609128   -3.25234947745284
C           3.42139566557930   11.26878548148813   -2.55130030280466
C           2.25725487175372   11.42524067888959   -3.24852979277233
C           1.21263627073264   10.61453154890646   -2.75596934075325
C           1.55076058535160    9.84737480439978   -1.67933675632216
S           3.20919096971176   10.11299280584930   -1.26279158233755
C           0.71048170051820    8.88758972805311   -0.91935518793403
Cl         -0.35712884740543   10.60886688094440   -3.46389125697439
C           6.18850072936021    9.97057851640360   -2.35040581623787
C           7.52076767940433    9.68775642333535   -2.27055900672583
S           8.53269713651988   11.08371682611620   -2.52492924495053
C           8.14966584811429    8.42395714981570   -2.03938363640055
N           9.47067532213010    8.40776322869672   -1.99593611058900
N          10.16305514225117    7.32672861609427   -1.82058581639058
C           9.61273536968211    6.13039605081933   -1.67467331008785
C           8.19352612457115    6.00890686594223   -1.68445178142624
C           7.42905673479304    7.20605578481313   -1.87084998741943
N           6.12072411505635    6.96913622597847   -1.85886551655014
S           5.88295906334438    5.39212387050311   -1.63212535732845
N           7.42300877750535    4.93624391624539   -1.54153617611116
C          10.49995511432246    5.02632949647341   -1.52965523490211
C          10.21126392279987    3.67953002656346   -1.43513963053971
C          11.37459420109235    2.91580094743921   -1.34235341283298
C          12.54280619429877    3.70330334932063   -1.35955050127391
S          12.21811181929142    5.37029647520536   -1.49793097045619
C          13.66411275656885    2.83650829344878   -1.27408231311140
C          13.21014519765850    1.51177352743037   -1.21381869151162
C          11.75550169521406    1.51655295412813   -1.24860304029994
C          10.92549348028095    0.43317594371929   -1.20835206433306
C           9.52098723087935    0.55537254657047   -1.24662386661343
N           8.37755493047034    0.63963710346055   -1.27707740861318
C          11.41915372324080   -0.88504767226687   -1.12815714788666
N          11.81834073907177   -1.95870114330267   -1.06554220756612
C          14.25508418458310    0.58364251740584   -1.14444686918917
C          15.49267756752617    1.18984198243357   -1.14115612153622
S          15.36560864061329    2.93984463064707   -1.22620701827525
C          16.79546418698726    0.57091087464021   -1.09109143839896
C          17.92458930682570    1.31870197553135   -0.74175930030524
C          19.17124416687775    0.73916264653383   -0.69535529254363
C          19.34135477273039   -0.60981080702864   -1.01108519740014
C          18.22024612982845   -1.35234013606849   -1.38412113414972
C          16.96749134502836   -0.78021409433267   -1.41105628743482
C          20.67768585728175   -1.21932411503363   -1.00958567114178
C          21.00119445331928   -2.02913014290439   -2.19485433505977
C          21.63020828201625   -3.26682281434532   -2.07228703675133
C          21.91800087945886   -4.02027466990453   -3.19390112596121
C          21.58088071877055   -3.55377970993004   -4.45403982336124
C          20.94128546576552   -2.33258746930452   -4.58553388466406
C          20.64708022765642   -1.57837731451812   -3.46540873634442
C          21.55070745522678   -1.03523325812910    0.00929876789507
C          21.14691550922824   -0.41227225263669    1.28021218631767
C          19.95546171324946   -0.77119248562690    1.90843389048838
C          19.59176799283213   -0.18891626698189    3.10736409748979
C          20.41128280338210    0.75740888747415    3.70059980412950
C          21.60471741812656    1.10987817737373    3.09250312314279
C          21.97396864235796    0.52601040498065    1.89545507028882
C          22.95950315273392   -1.43989961818602   -0.07797252648445
C          23.72157506952519   -1.15861283969994   -1.21230013168113
C          25.05015971260121   -1.51317599428289   -1.27159348436211
C          25.67277643727002   -2.16630293855554   -0.20419669576525
C          24.91068008178875   -2.43340431850519    0.93722431604260
C          23.58353101632056   -2.06934071498146    0.99944418275870
C          27.06916114267943   -2.53603142781501   -0.28525462209060
C          27.79919490333812   -3.29420007191493    0.57424697216646
C          29.16531155214097   -3.47523091358535    0.21149194387008
C          29.46573467052450   -2.81096490922444   -1.01997655921077
S          28.04140569333949   -1.98813373293052   -1.62951950005564
C          30.71361915073985   -2.85504830914221   -1.62316679866851
O          31.13497573779895   -2.27251743287857   -2.77866769435893
C          30.26556556521050   -1.48945066203540   -3.55849939982068
C          31.70322932748269   -3.60511366367673   -0.96083717173199
C          31.41434096131445   -4.24197222517563    0.25558729744737
C          30.16987285275021   -4.19451632466940    0.87626384426389
O          30.10616167241978   -4.89034384982484    2.04769996887668
C          29.11334847596792   -4.63881341319355    3.01014421134404
S          32.80042528054084   -5.08533115048103    0.88107464229064
C          33.74102239194234   -4.57870744608713   -0.48370855321825
C          33.05489117850016   -3.81774871952658   -1.36053720235862
H           3.83550788085768   16.65980447541714   -3.76326960693320
H           6.38497064635995   16.17657323175596   -3.66683114600958
H           9.65692212604740   12.81765948652949   -4.25729243710089
H          12.18260611738458   16.70692784971113   -2.68797242438146
H          10.96260888931187   17.30440991107890   -1.54543991582673
H          10.90938408031682   17.80398332841629   -3.23582999787531
H           2.14701258927918   12.06457740535897   -4.10423647053541
H          -0.32905102787822    8.99345884242313   -1.21983335702295
H           0.79404746864190    9.06822679587057    0.15103767573231
H           1.02792991928505    7.86262865412605   -1.11313090768425
H           5.43742349986955    9.21163773835629   -2.23538236952897
H           9.20410465726045    3.30360108628507   -1.43998570389542
H          14.11685746460315   -0.47988639394022   -1.08093173797023
H          17.81166504539758    2.36631652063003   -0.50071059488444
H          20.03127299058477    1.33462407876153   -0.42778545758597
H          18.33974120592806   -2.39442784958085   -1.64432534072918
H          16.11626714010541   -1.37583836343898   -1.70240748809738
H          21.88235388847093   -3.64030157812093   -1.09061498076350
H          22.40566614543852   -4.97786780609135   -3.08489613831871
H          21.81029710982726   -4.14271643180655   -5.32964305476676
H          20.66926017829366   -1.96682862903377   -5.56507006981846
H          20.15210549328903   -0.62302212562959   -3.57023079767357
H          19.32139026065375   -1.52079111118821    1.45827143781038
H          18.66606596929551   -0.47743692819103    3.58342078196023
H          20.12375892672292    1.21362499782865    4.63624673093498
H          22.25088180631131    1.84234570583772    3.55397091550634
H          22.90378231524684    0.80533696668443    1.42010447272669
H          23.26607243193208   -0.64440926576696   -2.04535661437229
H          25.62628819770666   -1.28338252454157   -2.15646858842035
H          25.36264687128259   -2.92021651817456    1.78769045629936
H          23.01036303638611   -2.28354207424258    1.89047821888860
H          27.35412341255502   -3.74170103479036    1.44049491043155
H          30.86789375820182   -1.14837835292105   -4.40002495719820
H          29.89471248520631   -0.62084417803594   -3.00785188575092
H          29.42049769313486   -2.07157268816905   -3.93551509972247
H          29.51112525382683   -5.03446354986531    3.94538077886029
H          28.18362579014660   -5.16767498752248    2.77585341923570
H          28.92034001790755   -3.56904455992470    3.12607571976279
H          34.76562569453660   -4.88952928259653   -0.54212282358384
H          33.46265148871951   -3.40845744656058   -2.26588602958852
