105
 SCF done       -209.175755818625          0.000592411205
C           3.85565488776321    7.30840966774024   -5.62358274849580
C           4.87201123916198    7.10452222639694   -4.76216921358027
C           4.90266005707714    5.77790310719286   -4.23945880413836
C           5.80680879816606    5.22465574305406   -3.31444167047797
C           6.86120828063189    5.99685323243947   -2.68602389019975
C           8.13191385978980    5.59473337403390   -2.39168216085933
C           8.87588052723383    6.58563280938117   -1.71475791345707
C           8.19283089690996    7.74074607171977   -1.47223538196666
S           6.58482563910383    7.61648561962180   -2.10216366347369
C           8.65671971534334    8.97396654448830   -0.78764784025185
Cl         10.51219776434755    6.33725506641057   -1.23986993857909
C           5.62867269887361    3.88077459945609   -3.00012560115991
C           4.57895670193580    3.08857179815599   -3.52755985208203
C           3.65953149739401    3.64887817978639   -4.43508061001871
C           3.86478004554352    4.98283909572757   -4.78010431887279
S           2.87249092372222    5.90905307252947   -5.87373191889486
C           2.54287279674387    2.90001654672860   -4.97466494083146
C           2.03374461038956    2.94867070578728   -6.24071054997045
C           0.90248354028801    2.12094807822433   -6.40758638588882
C           0.52498957197078    1.44416988274348   -5.28515022786559
S           1.59509267121061    1.82554772823454   -3.97921579972517
C          -0.60758051255716    0.50200658872448   -5.09976700201089
Cl          0.07865716157018    1.98684586343759   -7.91378878521466
C           4.62581319425663    1.76176671219981   -3.03793909752773
C           5.64221966316012    1.53802367201259   -2.15441004191685
S           6.61378007236847    2.96908781549609   -1.88680463134590
C           5.95117223229505    0.31730657370655   -1.49943384214167
C           6.98731626401799    0.00390932866174   -0.65169575434256
S           8.29770959556874    0.93027505474073   -0.00049661506621
C           8.84148594019351   -0.47492598701695    0.91586382941124
C          10.03967544199698   -0.33890290542469    1.78099144199094
C           8.07262632689490   -1.56833751753529    0.72249783384879
C           6.99979732358428   -1.34308137456904   -0.18746822329706
C           5.93785745452925   -2.07946897461773   -0.68089152075781
S           4.94043766557864   -1.08729112845219   -1.71524855453854
C           5.60498717024462   -3.46384468863590   -0.48040833798044
C           4.28839516716801   -3.92822461871898   -0.43730824818852
C           3.95487291669991   -5.29357465553160   -0.26227611351932
N           2.61742104150481   -5.54417577101569   -0.17959307366578
C           1.93111812654858   -4.47910358642179   -0.29859517076969
S           2.82278352089276   -2.99496121862345   -0.52228660217732
C           4.94792045643715   -6.27310829295206   -0.14839952932441
C           6.25902077914483   -5.82301944419384   -0.19492259718842
C           6.59769939138080   -4.45376125668411   -0.35748050445038
N           7.93720299670624   -4.22687530796795   -0.45217686813021
C           8.61289467635431   -5.30421833720707   -0.37980156626587
S           7.70781281685482   -6.78346513077355   -0.17995528855552
C           4.58024417954150   -7.68149178794464   -0.04348216856814
C           5.00974576210732   -8.52237037369486    0.97353173020501
C           4.60593412487342   -9.87667306344668    1.06305082992047
N           5.09463140449278  -10.53530189786910    2.14823715872224
C           5.81645119470443   -9.77891156162988    2.87734074716923
S           6.01461610599232   -8.13244276546924    2.33679337603256
C           3.79447667743988  -10.47228278114619    0.07915425464983
C           3.35518545759589   -9.61782616441447   -0.93418169727311
C           3.72481667850451   -8.24902311208840   -0.99338238087021
N           3.20098018724677   -7.56925781752887   -2.05156764769150
C           2.44124470937963   -8.29835879061476   -2.75909204401974
S           2.26943784774839   -9.96486784679371   -2.24504564341089
C           3.44720471088745  -11.85700365641540    0.22699282955330
C           3.20595317263886  -12.79744166182529   -0.71680408353466
C           2.49404822968064  -14.05415218916887   -0.33080721654875
O           2.28968444086377  -14.45305190425736    0.79061598732787
C           2.05115288616182  -14.65134331555129   -1.60475853528449
C           1.24479139856505  -15.73345571602084   -1.81096192403551
C           0.91568247260861  -16.10586458647387   -3.13347253266914
C           1.42785554097410  -15.34127486396453   -4.22239269320971
C           1.08410256338974  -15.70984664243080   -5.53765879690578
C           0.27252879879342  -16.79093138020200   -5.74143085536482
C          -0.23795958309986  -17.55740835151801   -4.68470435333211
C           0.08462385785612  -17.21298421626573   -3.40162398814523
F          -0.05755497861860  -17.14391255763053   -6.99672097436537
C           2.26980748832125  -14.23134433481807   -3.97964598442933
C           2.58200022420171  -13.89567180952129   -2.68989899871322
C           3.42280537572713  -12.83354465270716   -2.14877876184009
C           4.38495484761527  -12.14915309404762   -2.84265053703701
C           5.32953951402069  -11.28911042687666   -2.24585870793357
N           6.14009529638999  -10.60302773437626   -1.80990643874208
C           4.59047552004795  -12.27769370712397   -4.23213105921526
N           4.78347421310050  -12.33116975595886   -5.36216523255472
H           3.61200700807863    8.20740490798102   -6.15488268307526
H           5.58797483079644    7.86270396408859   -4.50589814118555
H           8.54505280049969    4.64370656623326   -2.67101955671077
H           9.70037519773505    8.86329156779589   -0.50410983547247
H           8.06500710042910    9.16195585207323    0.10796437779827
H           8.55631375364549    9.83849986647660   -1.44295249225500
H           2.46172253441216    3.52099022893844   -7.04221269157355
H          -1.09418464633577    0.32301194209151   -6.05535233993097
H          -1.33900429600734    0.91304150219278   -4.40393253441159
H          -0.25544791139506   -0.44590917517979   -4.69503025172363
H           3.94574620287686    0.98319752276616   -3.33040460939757
H          10.90746942213825   -0.05537954225203    1.18610683656422
H          10.24762564318231   -1.28010267314931    2.28361301910030
H           9.88401884541148    0.43789913120574    2.52927873133794
H           8.25668460749642   -2.51342502561146    1.19632420414944
H           0.85930201894034   -4.45718480080141   -0.26446462886166
H           9.68351174253349   -5.33404652655883   -0.43505232580171
H           6.28959053589188  -10.10618648450267    3.78247294328517
H           1.92636231758826   -7.95961278733447   -3.63631039035186
H           3.33975931337313  -12.18829683973581    1.25527084328596
H           0.85927874449558  -16.29747857024748   -0.97488183836503
H           1.46209848464781  -15.14477612837996   -6.37529444802981
H          -0.87337887336134  -18.40003524260471   -4.90669943872693
H          -0.29701679663172  -17.78780556252682   -2.57128858818956
H           2.63686749268903  -13.66478373581676   -4.82066952569686
