120
 SCF done       -230.724670119551          0.000996778595
C          11.70739249154623   -9.91537356557990   -2.25225216323757
C          10.39612563041055   -9.69879140514390   -2.02763014930559
C          10.12299065226159   -8.37844327277737   -1.56084194932594
C           8.87437909496555   -7.79948849790954   -1.27408643643703
C           7.65692588141758   -8.58588947074779   -1.31249594047914
C           7.46253456471549   -9.84604257202522   -0.82641181272299
C           6.14519842968789  -10.31161550527195   -1.03202353527476
C           5.32772062240469   -9.42841780890279   -1.67323144183072
S           6.19433049012461   -7.97172313043101   -2.03230000415528
C           3.90044116595022   -9.58605094163739   -2.05160309576424
Cl          5.63075944993647  -11.87062306044542   -0.50709162824135
C           8.87950379136518   -6.44864559977195   -0.94135585787232
C          10.05939838629701   -5.67472665964980   -0.84418984102495
C          11.31153365680290   -6.25883693727738   -1.10273171426745
C          11.30289884969353   -7.60690386888158   -1.45860408695602
S          12.70264592428257   -8.54452815233288   -1.90818330576382
C          12.55705932852915   -5.52133113405640   -1.03485407655754
C          13.75992914710700   -5.97015508015340   -0.56594821193725
C          14.78836821668833   -5.01687582916897   -0.71095838169192
C          14.39967720708203   -3.84672014435229   -1.29627300033954
S          12.71186364487123   -3.90410473955620   -1.66263785934133
C          15.21666959848579   -2.65008135938335   -1.61593983543580
Cl         16.40332788675208   -5.32148656289910   -0.19398519893561
C           9.77810900023050   -4.34111201616183   -0.43471824814799
C           8.46170241687015   -4.10489177772200   -0.23706838016191
S           7.47246090139178   -5.50676212331234   -0.54455942884409
C           7.84692139537075   -2.79347053226061    0.16047892192620
C           6.34308658234649   -2.94181293654700    0.43000206495182
N           7.97872137086446   -1.91698031853219   -1.01297456175986
N           8.32295523738682   -0.77080573641714   -1.03558344793942
C           8.61996520618264    0.06015993542601    0.17600004522577
C           8.94746085245302   -0.82570388571857    1.31870151491114
C           8.54539429746058   -2.19574712080510    1.32607527146370
N           8.94805091074918   -2.71380097309318    2.44776520929918
O           9.56716765216856   -1.73520225001063    3.12016988309901
N           9.57088709650056   -0.58024299218924    2.43341300499281
C           7.30883276557425    0.81162993059852    0.46060835746177
C           9.71970103920435    1.01616773646126   -0.14963491514960
C          11.05569426905533    0.77775850957059   -0.42897250426954
N          11.60944183184786   -0.51888651727371   -0.45700125901732
O          12.77787342005027   -0.65960319736584   -0.75012321329631
O          10.87352258103637   -1.45232540566445   -0.17616335072619
C          11.82236408214733    1.96104786041630   -0.69344454196970
C          13.28346487623942    1.97396932910406   -0.97561968101611
C          11.03420796029400    3.07174265886924   -0.63255901924627
S           9.38471375413569    2.69285771056907   -0.24156459634394
C          11.39504469370245    4.51166818925699   -0.90001596142541
C          11.63568529326578    4.74431935852586   -2.39494513384648
N          12.66603576967053    4.78344531885229   -0.18552368952257
N          12.75975592584618    5.26047077639385    0.91416672454552
C          11.64090495202759    5.66144910646427    1.77671467614889
C          10.44698854439182    5.95130466689836    0.94438836654006
C          10.33842832749538    5.40415280738968   -0.36776856566660
N           9.25592926669194    5.88219585968983   -0.91179702267734
O           8.70018075134913    6.68273427161154    0.00622842582771
N           9.42488066647069    6.73536590779191    1.13189616557356
C          11.38397856328856    4.47570192095117    2.72490710244505
C          12.07140499380738    6.87308800558086    2.54945045065260
C          13.18372250411467    7.61357329232143    2.35463056067615
C          13.28165661275576    8.72316980954310    3.24407606155579
C          14.30956184501666    9.67636861114075    3.33545563188265
C          15.51105019727815    9.61423278562721    2.52645490479479
C          16.19255006118790   10.65089742745504    1.95672913293091
C          17.36500752019122   10.23283302407908    1.29078781568279
C          17.60201453656416    8.89074109172977    1.35024446922488
S          16.34180374942875    8.10793954102931    2.24181284983275
C          18.73629223682158    8.11893625589546    0.78251717114289
Cl         18.40139852287620   11.34036384963073    0.47536935615961
C          14.13408326969909   10.68839725287876    4.27766483300165
C          13.01343506401472   10.76748123861912    5.13729595918063
C          11.99641593687716    9.80071689754539    5.05995012179443
C          12.15769159192217    8.80704027273046    4.09707493629832
S          11.05067299260659    7.49134865876728    3.81693013140538
C          10.83885593925444    9.80177380235611    5.93336271999357
C           9.54637623726626    9.50822803023074    5.60673033202415
C           8.67874264901471    9.55263456630431    6.71985955738478
C           9.28716978453157    9.86239899652816    7.90060783011821
S          10.97945411594580   10.12080097525426    7.64147515002218
C           8.68913344518095    9.99073753940102    9.25345790238837
Cl          6.99156450668944    9.23751970394798    6.57987018913430
C          13.09669084502039   11.89897881926792    6.00259941205061
C          14.22542738461105   12.61365699091796    5.82690366413022
S          15.25984546665631   11.97964199808262    4.59605947915814
H          12.17592896044011  -10.81309793577859   -2.60549517735973
H           9.63258862535585  -10.43197543823577   -2.20961107906468
H           8.21225977062662  -10.41111429010197   -0.30414145262597
H           3.54845086780014  -10.56997078710849   -1.75173334147565
H           3.77415041516433   -9.47726775434464   -3.12815926843774
H           3.28912400800813   -8.82740889362514   -1.56390939692060
H          13.90935659132527   -6.92686479198850   -0.10126502948704
H          16.16225999448601   -2.69603712968525   -1.08126852300710
H          14.68022141430762   -1.74708583101430   -1.33353873594946
H          15.42258952050829   -2.60247940322809   -2.68579305987556
H          10.52902948966357   -3.58947231635291   -0.28804651827564
H           6.19348653814122   -3.68334844840776    1.21071050908742
H           5.84553257377582   -3.26717832477663   -0.48016412077837
H           5.90811860650893   -1.99755362401266    0.75159217981179
H           6.52211275184835    0.11211661557749    0.73369203121326
H           6.99591217857557    1.35255539317988   -0.42986020703472
H           7.45492322869986    1.50891880143748    1.28306948723878
H          13.81931042790761    1.44018018824576   -0.19380378418769
H          13.65140360885598    2.99381180671213   -1.01992818895604
H          13.48942717812374    1.45929451870960   -1.91244690351520
H          12.39505857776448    4.06224552517613   -2.76290932441313
H          11.96867408806013    5.76651067181702   -2.55714305473658
H          10.70598666258378    4.58679850075991   -2.93498372799318
H          11.07213671374324    3.59482453822932    2.16606637839338
H          10.60432586400540    4.74735764858523    3.43206039101256
H          12.30028449138199    4.24797416630929    3.26345113014758
H          13.91331392551159    7.37648511856793    1.60311543098012
H          15.86397197514283   11.67308522565404    1.97560029775927
H          19.32073000918279    8.75762989242345    0.12483801752633
H          18.37364079723075    7.26034229968300    0.21985606027982
H          19.38454677556548    7.74984941444947    1.57763382847987
H           9.20696389848819    9.30082114150857    4.60902898522729
H           8.83473542907811   10.99731102703672    9.64452816094081
H           9.15468471157382    9.29140406704641    9.94718860353940
H           7.62343948670338    9.78225873979785    9.20266085102524
H          12.33747567053254   12.16088214970189    6.71533054208781
H          14.52917579751918   13.50291930601635    6.34326869986826
