98
 SCF done       -187.344150848081          0.000873301529
C          -2.64593387298576   -1.97503092345768    1.05251263907682
C          -1.83866030460882   -2.07848888853892   -0.02197066896758
C          -0.60676536404135   -1.37792530132355    0.13905860696270
C           0.47741451225844   -1.31310212527269   -0.75337741575049
C           0.39900323295733   -1.90754606393804   -2.07409693211105
C          -0.63614412657624   -1.83985980089606   -2.96034385339567
C          -0.36963589118828   -2.53328693703495   -4.16146903707837
C           0.85280479906304   -3.13667081499602   -4.20572018950563
S           1.71429483744007   -2.84056444328286   -2.73264624372231
C           1.45550770302968   -3.94288694157589   -5.29700710475836
Cl         -1.50721613603153   -2.59894325964110   -5.45442105202640
C           1.60953870425812   -0.63964373822678   -0.30789849520586
C           1.69322932313067   -0.00724183353573    0.95769534080719
C           0.60216864192114   -0.06116800497951    1.84645170648316
C          -0.52561208279144   -0.74840569519519    1.40299225208342
S          -1.97783934582947   -1.02038045131363    2.32898119165423
C           0.63913131937413    0.53447642577638    3.16613899941264
C          -0.37188860813545    1.17587020884919    3.82317913243668
C          -0.00563688930058    1.58044597554241    5.12441570154421
C           1.26798158325743    1.24761137252457    5.48343434363296
S           2.05117296575700    0.41997544413992    4.18170747277789
C           1.97454818364115    1.50774487255379    6.76285912852586
Cl         -1.09048305553328    2.42464259442055    6.16143137274533
C           2.93074114088824    0.66304086314186    1.12548764646516
C           3.76801128460617    0.53767416481150    0.05926010674530
S           3.06742685526915   -0.41495146813699   -1.22941690333852
C           5.09071698545737    1.09798006202724   -0.05736899859596
N           5.47661949910151    1.91038173344604    0.93132081800831
N           6.64169441046552    2.45688990275381    0.92122081906730
C           7.50016965142497    2.23417762936291   -0.07061031061745
C           7.17936764629249    1.39484828827559   -1.15055356873594
C           5.93765562784687    0.81011823458505   -1.14284708228923
C           8.79617959593013    2.90485165249381    0.01521277972040
N           9.73075620000890    2.52030931544289   -0.85006714185496
N          10.90194310494807    3.06217296137178   -0.84544081841331
C          11.20935107737092    4.01778005589347    0.02758208079805
C          10.28486449339311    4.47893276466519    0.97982254068328
C           9.03686891203160    3.90569349293484    0.97160175316102
C          12.55993940925969    4.57172685715572   -0.04749375820914
N          12.78876936570587    5.69011676032406    0.63593848524858
N          13.94859322387178    6.24780202156131    0.63446063572542
C          14.96341826810325    5.71968777090715   -0.05623258952194
C          14.80325446159623    4.54463866785476   -0.81252950874711
C          13.56494011220265    3.95243873815800   -0.80896035887952
C          16.21840903659022    6.42482301095350    0.02033690547110
C          16.42636091369991    7.64195710903750    0.59320919783193
C          17.77113644391411    8.08391655245885    0.51673586739331
C          18.31320300463488    9.30730991046721    0.95478480161431
C          17.52605271719301   10.30553357260328    1.64928032962348
C          17.58332104060143   11.66265025134723    1.50747658706741
C          16.70501048625746   12.33863303626703    2.38078333354865
C          15.98500878215014   11.52192918306993    3.20341392634105
S          16.38438799836419    9.86779911256917    2.89120392643312
C          14.97993654785523   11.88696735421432    4.23312251953302
Cl         16.56792336816462   14.05513175056349    2.39606048244670
C          19.66527062189622    9.51485329669932    0.69426485155232
C          20.48974029500393    8.56792996177453    0.04130085794145
C          19.94961655457983    7.34628722049431   -0.39683963564493
C          18.59555965738094    7.14143475131439   -0.14581502878350
S          17.68578086864425    5.74498584647014   -0.64663190158197
C          20.73470455119682    6.33645423193900   -1.08026290923040
C          20.67427615845604    4.98309350364117   -0.91561772630225
C          21.54333745634642    4.28762345180306   -1.78407050639327
C          22.26166427613032    5.08580083250859   -2.62457877463823
S          21.86977521442564    6.74795232620391   -2.33737349881544
C          23.25382949600705    4.69771427400142   -3.65845119031698
Cl         21.67069811817772    2.57007759025972   -1.77080588331725
C          21.84297426823061    9.01225786016767   -0.02756868134613
C          22.02772455453961   10.22521692904575    0.53077304337580
S          20.58185224712506   10.91764736768773    1.17472640787189
H          -3.61846731871740   -2.40570325921266    1.19003334329161
H          -2.08311000458017   -2.65137874919906   -0.89684229335463
H          -1.54028300576925   -1.28550672127186   -2.78816032215790
H           1.70615674994647   -4.94204184888898   -4.94279139018482
H           2.37145972398608   -3.47545213029775   -5.65709490621815
H           0.75305931148211   -4.02580140202639   -6.12256323330992
H          -1.33254270814198    1.38930111723830    3.39338457548460
H           1.33451509812016    2.08719367528856    7.42342901723750
H           2.89671737146271    2.05968165173987    6.58593371878847
H           2.23423142735869    0.57085650280231    7.25531122780239
H           3.21203221832018    1.23275684358242    1.99055075033613
H           7.90105206162744    1.23773335383110   -1.93586632584130
H           5.60617669656384    0.14923310941679   -1.93045502746506
H          10.57640692896960    5.25347315259217    1.67098472492037
H           8.25176378384076    4.18548628347650    1.65560522015439
H          15.63500123298546    4.13897293373140   -1.36972947860969
H          13.34032408845772    3.05068075862622   -1.35542840370920
H          15.62027013450771    8.19374905738699    1.03768467730430
H          18.19737562964828   12.16981011356456    0.78709779953936
H          15.25135977882350   11.46685664498517    5.20060275103829
H          13.99763390745681   11.49939480106459    3.96358314420795
H          14.92020935216252   12.96895483387897    4.31951493832843
H          20.06309461234515    4.49108634223837   -0.18246829734676
H          24.23149289653613    5.12249000465530   -3.43224464514916
H          22.94930269907993    5.06134087846772   -4.63914082296571
H          23.33933714614076    3.61464258732331   -3.69353464645721
H          22.63635299058493    8.43837269944581   -0.46809317565029
H          22.94134106434336   10.78144433832465    0.60871625620382
