88
 SCF done       -180.203573692338          0.000635156257
C          -3.28401617252354    0.89820365145001   -1.81414142519691
C          -2.52974350669167    0.01653722202627   -1.12731180267470
C          -1.16848463367850    0.42228214771845   -1.00652370406689
C          -0.10776308392753   -0.25671033222504   -0.37784950841701
C          -0.26273967185967   -1.55832276861301    0.24232303079690
C           0.30779219595383   -2.00195390384591    1.40068589119346
C          -0.01671240084516   -3.34491793080943    1.69111997714980
C          -0.81840995452809   -3.94610821014250    0.76559453939106
S          -1.19763881081636   -2.82831038235818   -0.50060506927897
C          -1.35088472419924   -5.33175431656582    0.75157203834769
Cl          0.56114815808289   -4.14221666898986    3.10377125497582
C           1.12813422959647    0.38204424007897   -0.38723515209014
C           1.35245704959351    1.63743941433495   -1.00490539310789
C           0.29549597316587    2.30929584180497   -1.65103220060953
C          -0.94643659872221    1.67939643705497   -1.61826592505665
S          -2.40688218877579    2.28580356210951   -2.35085789277337
C           0.47666978138838    3.57548242503315   -2.33109581148803
C          -0.38363119564267    4.63559576513670   -2.37364331365750
C           0.09333540883665    5.69730519129524   -3.17192533539279
C           1.30527249220965    5.46757765457947   -3.75534701311286
S           1.88653616458503    3.90107530924287   -3.30765189368197
C           2.09163830670364    6.34978740904728   -4.65374779897940
Cl         -0.79073805506461    7.16017860575069   -3.37911117547617
C           2.69345921310320    2.06232552818533   -0.86618771721044
C           3.49202526822165    1.17007921006446   -0.20536538805545
S           2.59963184921901   -0.25401576161952    0.29638008035074
C           4.87720550321933    1.28689018898954    0.07805344521065
S           5.79748848343287   -0.09687910766939    0.58329906901575
C           7.29557982229087    0.79735805923814    0.65917171429948
C           7.05824460064574    2.11688796335437    0.31882131007820
C           5.70213701927346    2.40723975888945   -0.01072873531646
C           5.52611398020501    3.77540669136546   -0.32777477805720
C           6.69105007778605    4.47702223448471   -0.25656081405670
C           6.89407566047652    5.90477885752433   -0.51362147147302
O           7.94758102876222    6.47827996282670   -0.40413214747003
O           5.74972858230793    6.50156508055302   -0.89118177620016
C           5.84469939237955    7.89440856171790   -1.15390530266192
S           8.07640438730380    3.51592832723026    0.20849157146426
C           8.51409503479635    0.16583948596391    1.00439240633759
C           9.76495836701613    0.75231882835729    1.11975916220604
C          10.74523399415389   -0.18189385221157    1.44942484568298
C          10.24034899836598   -1.48602296084572    1.58492815803979
S           8.55475561721745   -1.56158120715313    1.31317847784571
C          11.31127282691112   -2.35694465801249    1.89804594129591
C          12.50036091074393   -1.60435166712502    1.96403895476944
C          12.18244946764126   -0.21251561340591    1.69031700305109
C          13.04268772563635    0.84440656822695    1.66514606242746
C          12.61085647203073    2.16002652337447    1.39001054414470
N          12.26924395540838    3.23164262482012    1.16905367941703
C          14.42454035340447    0.70112512947053    1.91501041228821
N          15.54871707837173    0.59991838893572    2.11528570561127
C          13.61789942104238   -2.38468774612640    2.25417814821684
C          13.28398133099251   -3.71923649100503    2.40544633404920
S          11.56885488790020   -4.01625934597594    2.19318674319585
C          14.17447697517995   -4.78332166665933    2.68496635564013
N          15.45553234889137   -4.62728525487105    2.84766675517060
C          16.04670665002778   -5.79847397924649    3.08402423745925
C          15.21532481446253   -6.93052996801356    3.11182957740599
S          13.58729145275866   -6.46322624989673    2.82165120952296
N          15.81088200763053   -8.09997931833451    3.34086516343840
C          17.08918596977928   -7.94821187460664    3.49895690463437
S          17.67186051112937   -6.26794118582996    3.37038947516284
C          17.99272720833289   -9.03388066171543    3.75288208090492
C          19.36682634434528   -8.85846072261300    3.95095125920674
N          20.17858997768158   -9.87188114139334    4.17759851165227
C          19.63835877470066  -11.07793955521355    4.21263483892675
N          18.35874667332306  -11.36725887655753    4.04343056494000
C          17.54074006006608  -10.36112487703330    3.81544878607028
H          -4.32964418570525    0.83252579528475   -2.04248540070810
H          -2.92038003258176   -0.89252554147614   -0.71045698597098
H           0.90781542267235   -1.39347985270351    2.05113863392682
H          -0.98465163728722   -5.87230237709708    1.62066944850342
H          -1.03686131433875   -5.85562860751219   -0.15053596164373
H          -2.44037516537117   -5.32489496343790    0.77275384520058
H          -1.30849079712606    4.68450188984114   -1.83040458636412
H           2.05301697740720    5.98414688891550   -5.68019785610387
H           3.13561273261814    6.37743141348836   -4.34686056859113
H           1.68245373628447    7.35669507256979   -4.62907546835671
H           3.06157816651620    2.98651839691526   -1.26367047229028
H           4.59450010422180    4.24328825924664   -0.58148347233380
H           4.84859158810247    8.21481746351533   -1.44749770816796
H           6.56251373248090    8.08178476990202   -1.95498136339155
H           6.17166151769445    8.42782373123307   -0.25931007960558
H           9.93522851318655    1.80182968939040    0.96713809986117
H          14.62908524601844   -2.03584637282809    2.35219585360961
H          19.81727385442156   -7.87348549251845    3.92535061132087
H          20.30707779503128  -11.90746039311039    4.39974845861127
H          16.49443390432753  -10.59349436309731    3.67338129709076
