96
 SCF done       -196.763809364963          0.000626108647
C           5.62107368284014   -2.52054784627664   -7.32157622150601
C           4.56399264838298   -3.38794984834298   -7.44946748245984
N           4.07383886838330   -3.69568652607872   -8.75431299714140
O           4.43667821051304   -2.96749674277894   -9.65613043503137
O           3.34272960812327   -4.65267877814766   -8.90077857778062
C           4.07145132614821   -3.88446824437200   -6.20917929137243
C           2.91510932503027   -4.80598977341784   -6.05342278871100
C           4.79267965383087   -3.36464477845559   -5.14655317461698
S           6.06216837287302   -2.29101244960496   -5.70195882021849
C           4.62736977869315   -3.59057762882691   -3.75304498722822
S           3.42514983205340   -4.68902147553186   -3.13000783370195
C           3.85257235690350   -4.39549557382544   -1.47172511350701
C           4.88986267726084   -3.48726323405773   -1.42128621551003
C           5.33738954667652   -3.02357432550188   -2.69250999898095
C           6.39177553871021   -2.08587063423060   -2.55753354491992
C           6.71947211279358   -1.86116830887052   -1.25455855867935
C           7.73987386244590   -0.96597959483157   -0.70697362855374
O           7.97337449111035   -0.85007356410835    0.47120953346692
O           8.38040238970686   -0.28789893028812   -1.67067796070566
C           9.38394323205640    0.61236463458933   -1.22213973700847
S           5.76886164089811   -2.77571302116520   -0.10829525471001
C           3.15815929202941   -5.01053575351980   -0.39697411891904
C           3.36584578768348   -4.80098170529786    0.93744699137654
C           2.47804134062595   -5.52073656919253    1.76907204858999
C           2.38434929712707   -5.46913145892855    3.17550586510742
C           3.34762532103856   -4.75014485370944    3.98239037387446
C           3.13144634092903   -4.02384055326573    5.11895004474522
C           4.32082864902182   -3.49121285473005    5.66116124823284
C           5.45247878255088   -3.81015182396111    4.96763105274663
S           5.05025087401514   -4.78938822052483    3.60042701482384
C           6.85730131006231   -3.41660994444391    5.23841137369558
Cl          4.32515553951311   -2.52007605838483    7.08229920420525
C           1.31210723954602   -6.14811028773840    3.74424561963152
C           0.37809414370935   -6.90665428004318    2.99290568708265
C           0.51332716462195   -7.01228055111380    1.59260270188363
C           1.55943438241259   -6.29616796052515    1.01994137760717
S           1.85846289371409   -6.14589900732004   -0.69094982550305
C          -0.37854929831364   -7.80014164390611    0.76672192310908
C          -0.04558196103848   -8.53773414917841   -0.33411523040117
C          -1.16189807861477   -9.15073014553112   -0.94215728233628
C          -2.35383779143005   -8.88648477720223   -0.33333467857021
S          -2.10054443086061   -7.85837473177735    1.03585767515347
C          -3.71300906717575   -9.35850746751998   -0.69745747009099
Cl         -1.01231643097455  -10.14872849545274   -2.33733000150457
C          -0.60362188176513   -7.49754914309023    3.82153732571867
C          -0.45614016299888   -7.20269561818072    5.14702025441780
S           0.94625763932331   -6.19860935443909    5.44713015286160
C          -1.32780669955920   -7.55679578991721    6.21306461043460
C          -1.17149606233212   -7.28553725576870    7.55737184077315
C          -2.27211066921863   -7.70982560889474    8.30519483686047
C          -3.27120367593099   -8.30574026126717    7.51808839807172
S          -2.85095072287962   -8.36011133909415    5.86446113478487
C          -4.36515225084080   -8.66314485741562    8.34892725110830
C          -4.04687277858051   -8.28685295726170    9.66890978992494
C          -2.72003011337434   -7.68997601475808    9.68803312272765
C          -2.04520848045630   -7.20934535283107   10.77123761399200
C          -2.59410860163882   -7.24341406228519   12.07033526672106
N          -3.03810923538813   -7.26979310015522   13.12729159105853
C          -0.75487113570898   -6.64806828631948   10.66674996371491
N           0.29554871730546   -6.19525588407640   10.58783150708873
C          -5.07587470206446   -8.55992734860016   10.55649289514807
C          -6.18288474923610   -9.12953379293132    9.93116348292425
S          -5.91889765163704   -9.34537884306210    8.20473281943318
C          -7.37264771627682   -9.46852118977514   10.62842040778816
C          -8.65635189352157   -9.85348480200221   10.21995224392391
N          -9.02599543720163  -10.06938447437274    8.88911232390670
O          -8.13322721240180  -10.17020172955672    8.04813993136273
O         -10.20467875035547  -10.15525129399777    8.60352613390676
C          -9.58424095299273  -10.01094058459366   11.30283240105184
C         -11.01064070455542  -10.41392726024308   11.17071056794555
C          -8.99340525728564   -9.76337219524471   12.49674191094977
S          -7.33773765415699   -9.31873770532025   12.36053234180439
H           6.14659839456601   -2.03392830094638   -8.11932696897269
H           2.47345092696860   -5.03385956379071   -7.01817364499594
H           2.15819355893927   -4.36071533618479   -5.40757966737277
H           3.23475808176265   -5.74076143150706   -5.59255490901320
H           6.89411284130735   -1.58991611379638   -3.36603192113104
H           9.78495382842798    1.08650047091790   -2.11388952249490
H          10.16757726023799    0.07124761466198   -0.68798311251828
H           8.95200609517940    1.35724203157738   -0.55064285892609
H           4.10994190690516   -4.12140213415882    1.30545002130082
H           2.16289335378543   -3.83326316807581    5.54187923734324
H           6.91069797509050   -2.87054543567214    6.17675740478711
H           7.23581781159665   -2.78133404045656    4.43749322246261
H           7.49802098069802   -4.29522832434399    5.29982342312440
H           0.95944122130372   -8.67862225873969   -0.68554507073630
H          -3.65019377036763  -10.02883959503396   -1.55095529357810
H          -4.35619748304160   -8.51749989732524   -0.95542910209462
H          -4.17228196164477   -9.88726777524903    0.13696773489876
H          -1.40260675122351   -8.11815008072796    3.46013122861691
H          -0.29982723660081   -6.79569933496914    7.95286436231286
H          -5.04900055189257   -8.34760251610860   11.61051074874726
H         -11.57246612254967   -9.65077717209375   10.63516925848564
H         -11.44667790253961  -10.55623285326643   12.15609614543643
H         -11.09965118595823  -11.33602071370892   10.59954584414357
H          -9.44094293114954   -9.81390802831087   13.46889281402754
