122
 SCF done       -244.781646080357          0.000752097443
C           3.59509504487264   -8.26014104571899   -1.18935047489721
C           4.42535567480731   -7.69972873832407   -2.09210820325867
C           4.85567646254979   -6.39355035645597   -1.71666155418193
C           5.74095965490994   -5.53574215938325   -2.39483155850388
C           6.32804857481447   -5.86352911295265   -3.67957003713156
C           7.60274409978774   -5.61348825321768   -4.09971847923430
C           7.82987961908701   -6.02212777565980   -5.43188591779786
C           6.74371055497464   -6.57174520310604   -6.04742227369037
S           5.39880380087217   -6.59901463573371   -4.95765071092353
C           6.62245480634364   -7.09474881094048   -7.43146168067097
Cl          9.35988923402633   -5.83741863687766   -6.19952189240520
C           6.03416620453818   -4.32699681916759   -1.77023461913999
C           5.49387340612596   -3.94432343316149   -0.51862354476557
C           4.61068979825969   -4.80506117590395    0.16068360277001
C           4.30726289584690   -6.00721278092015   -0.47022306778942
S           3.27539458333897   -7.25301444748854    0.17714741195423
C           4.05312447116280   -4.44005811348601    1.44762133619290
C           4.68977093826301   -3.86767022983716    2.51088111324916
C           3.82412068213998   -3.63420421673697    3.60173273539946
C           2.53106978960948   -4.01309880957061    3.38774757193404
S           2.36551010363285   -4.68914873782815    1.80245863333180
C           1.36557692720877   -3.91093581433542    4.30169333809886
Cl          4.37390123891952   -2.92498596917719    5.07308883472551
C           5.90757296664118   -2.64335972485712   -0.13985860690042
C           6.72823431868373   -2.04344288634214   -1.04988070327324
S           7.04216881355769   -3.06938891178729   -2.43537901648680
C           7.32723804360447   -0.75511648339738   -0.96627300904695
C           7.96687377573392   -0.05517172465854   -1.96744619241438
C           8.44328567716185    1.17984764520980   -1.51952470526907
C           8.17675203313076    1.40673148543707   -0.15954301215002
S           7.31839888584293    0.11741075942188    0.55951024193642
C           8.71689901565622    2.66613921282585    0.20582283181671
C           9.30717566959491    3.24484107474457   -0.93019292139875
C           9.15020330460362    2.33164007541604   -2.05346592289131
C           9.57242837130717    2.52516843051111   -3.33577829926120
C           9.37413591575809    1.56259969158180   -4.34824651386471
N           9.20985318808940    0.78907670931170   -5.17839624734840
C          10.23018673032160    3.70729268756150   -3.73572369035709
N          10.75757478420317    4.67174393950692   -4.06266324505563
C           9.89008223557482    4.48384714330255   -0.67280018402566
C           9.76193190600563    4.85258597208244    0.65605892195371
S           8.89318527153827    3.64235512143878    1.59498154697916
C          10.26122031594296    6.01275168362637    1.29519468877788
S          10.40922445404358    6.06467587202332    3.02689460481845
C          11.09941754847541    7.66889036175282    3.02062381181394
C          11.19046053462986    8.12937954252834    1.71850435279647
C          10.72935233460457    7.20122611951669    0.73458651646971
C          10.88008215646149    7.71333385241537   -0.57489562864072
C          11.46744205730728    8.94381997518000   -0.57359636630387
C          11.80331748521384    9.77829955943118   -1.73199341607033
O          12.37989007136999   10.83504592393264   -1.66518545689936
O          11.39744496424191    9.21428566669499   -2.87861139426350
C          11.68568681874014    9.94375163698372   -4.06276537875242
S          11.83893886285455    9.56701789201808    1.01571145626134
C          11.52893639021225    8.26682302874626    4.22845380564159
C          11.73272373534942    9.58926195114822    4.54756731961653
C          11.45685875201958   10.90352520938936    3.96323465616630
O          10.90494043827218   11.20243386374446    2.93079713920642
N          11.92462927334335   11.81913333374813    4.90185355230286
C          11.84682735423768   13.24536611480296    4.70730408669291
C          12.41760153387644   11.23537234032848    6.06164727096643
O          12.84578185462974   11.84203459163725    7.01454056269567
C          12.27368268236749    9.79216227341615    5.84217579131142
C          12.47846853791417    8.64366217461936    6.56371671305512
S          11.98660923869298    7.26217678620179    5.59981874119276
C          13.00639971501550    8.47066743180435    7.87012023186998
C          13.12080597843832    7.29036023363450    8.55212318528396
C          13.71189530815223    7.43231053395030    9.82739319884991
C          13.98918012577590    6.42586923486862   10.77483793506150
C          13.72835773114535    5.02333389105126   10.52409107697401
C          13.26705289519877    4.08574575510049   11.40321482406816
C          13.18459595970255    2.79621572722776   10.83498325780788
C          13.58830694463034    2.72347266508587    9.53395058879186
S          14.07586871905769    4.28926264171135    8.97992024030860
C          13.64089583573835    1.54104256020398    8.63771239949111
Cl         12.61851433233448    1.43619732449893   11.72643612996332
C          14.55680508056490    6.84765548126317   11.97347316478095
C          14.89294573944560    8.19612635009768   12.24662312042978
C          14.63977932322981    9.19572297717025   11.29065339952518
C          14.02832654536657    8.78602159708090   10.10638450946746
S          13.60801858232901    9.83561404866127    8.78173980197778
C          15.01758175003205   10.58227807801978   11.48284156497099
C          14.34064812068872   11.70164887292594   11.09130796543091
C          15.04099806067012   12.89315227109723   11.37949693988843
C          16.25458399519067   12.70810553539360   11.97446843744877
S          16.54692718518677   11.01751729007431   12.20126046279107
C          17.24991568852628   13.72448560145622   12.39948810710563
Cl         14.40132334614291   14.44551763523525   11.00459282969590
C          15.47023400608530    8.33647829897623   13.54336841277645
C          15.58996289071606    7.16435298452475   14.19797342845169
S          15.00286873131685    5.80923405882935   13.30102282753740
H           3.13444179600705   -9.22758757976581   -1.23197292097539
H           4.73627935257100   -8.19370358472285   -2.99334146771138
H           8.37063859423395   -5.18795107365328   -3.48104505604759
H           7.60102652150021   -7.10378923501897   -7.90499388415840
H           5.95297162586587   -6.46859958878755   -8.02137718930057
H           6.21841107863090   -8.10605458358460   -7.42661372499826
H           5.74305753012095   -3.65823437793913    2.54164958405969
H           1.67223380505360   -3.45260788591677    5.23853915953115
H           0.95388997396345   -4.89830232422149    4.50818498601210
H           0.57760897987188   -3.30715440250241    3.85277727551030
H           5.58157832109204   -2.15127727163938    0.75835864904371
H           8.06828695608459   -0.43709496068820   -2.96736581311033
H          10.41615272296611    5.07375248371368   -1.39827498731662
H          10.57608641040472    7.22274422086910   -1.47982751853956
H          11.39310076965210    9.30241508802121   -4.88989432170906
H          12.75056640878067   10.17946329632100   -4.11358905089982
H          11.11829622535146   10.87675854389927   -4.07985484945175
H          12.47633922180185   13.54451743126958    3.86819929088843
H          12.19235779358307   13.72432363073028    5.62168785177887
H          10.81717583984283   13.53522700648020    4.49502719343683
H          12.77786462896487    6.35787652555108    8.14194432013462
H          12.96070214020333    4.30097317581621   12.40964551511946
H          13.25123525829724    0.67020196879845    9.15884797038560
H          14.66639122806049    1.33850795269119    8.32949612188064
H          13.04877923809573    1.71299492493493    7.73961281607443
H          13.36665984329217   11.69564406379469   10.63924670666948
H          16.82175735104429   14.71855791034544   12.29752259760173
H          18.14724086062241   13.66390324649477   11.78333242001119
H          17.54369118044430   13.56563587255450   13.43601345642083
H          15.77043300722866    9.27794999150630   13.96325320378887
H          15.98535587711953    6.99626576003321   15.18049436052387
