119
 SCF done       -239.971911978815          0.000514513920
C          13.92163162805104   -8.65944414277121   10.38132813899814
C          12.83623995170310   -7.94139617784571   10.73437696772198
C          12.65879464238068   -6.77266785359593    9.93751292362376
C          11.62501573105270   -5.82039004930820   10.00027908017344
C          10.56582034247641   -5.86950495547181   10.98944354538229
C           9.24410470146629   -5.57916276987115   10.81020660419715
C           8.49611509016440   -5.67479074442423   12.00400801005021
C           9.22699584998783   -6.01979534046970   13.10275776013185
S          10.88515522492570   -6.24916210565150   12.66043170387071
C           8.77280883988811   -6.20713304145381   14.50371263465938
Cl          6.80122971627864   -5.37570951972816   12.05051434368006
C          11.66766440958220   -4.79478963790000    9.06039423325613
C          12.68223332846710   -4.67882096158676    8.07967330337509
C          13.70784827261795   -5.64069732477449    8.00787360419158
C          13.67184681110220   -6.65838878844693    8.95544149842503
S          14.80445021603171   -7.97797825931388    9.06193146131235
C          14.73392020694916   -5.56035350882591    6.98777699329353
C          14.57776245345039   -5.26824298369352    5.66334836953472
C          15.80122195525535   -5.26643725006647    4.95876496217791
C          16.89455222323995   -5.54554463768331    5.72565436168144
S          16.41295884520308   -5.83297829972535    7.36391021276560
C          18.32078461557298   -5.62390596151480    5.32088193411752
Cl         15.88673981753681   -4.93427399778782    3.26984698867344
C          12.53467541497415   -3.50365016276619    7.30296666598279
C          11.45330776948150   -2.74815498376649    7.65271964764080
S          10.54705375193934   -3.46191757595855    8.97183573605523
C          11.02523449941718   -1.52270951369976    7.07058850867470
C           9.98828053169682   -0.70940693119977    7.47934038381549
C           9.85567697530054    0.41748690265089    6.66418661923757
C          10.79841541080146    0.45141028459789    5.62577574740739
S          11.85131897053637   -0.89241458297864    5.65440656416601
C          10.58161155399785    1.62206965142115    4.85340384715353
C           9.50168427559475    2.32981968460322    5.40752236390145
C           9.01717725801313    1.60434002568500    6.57060370997004
C           8.00595448707415    1.96673123078093    7.40997444657916
C           7.62641636502548    1.17271573900665    8.51329790842824
N           7.31107061442878    0.53445840721836    9.41225043116202
C           7.28196835561581    3.16926304905133    7.25980354061940
N           6.69226368596673    4.14881326301608    7.17530097828894
C           9.19136795375509    3.49389698243291    4.70442186025963
C          10.02104157786689    3.67689063802539    3.61672490560857
S          11.22074310360268    2.39270362963530    3.47691633276629
C          10.07435652503306    4.75094993677613    2.68148610915103
S          11.61330716881936    5.11275802649423    1.96015393786166
C           9.08887736560767    5.62449477958289    2.23872700994214
C           7.64680197242100    5.47512420578398    2.52491033256242
O           7.16341607650125    4.53646774832236    3.13413970753524
C           6.85090792511823    6.54957539731910    1.95784808792616
C           5.49712071209107    6.78055545641242    2.06866559042096
N           5.18922359515434    7.89213957435340    1.35927287454779
C           3.87995089399937    8.49077083723675    1.28846043782256
C           3.63347910710600    9.41471565386334    2.47928796625059
C           6.31131915023850    8.39297117898615    0.79230520236520
C           7.37560099059969    7.58682207926502    1.13637138159363
C           8.76973461951654    7.67953625507956    0.74333888128583
O           9.20166621822943    8.53559826722229   -0.00880343560005
C           9.60133117404437    6.61512599472513    1.34980320628914
C          10.95618757267334    6.47101118344488    1.09163691874662
C          11.78169497362469    7.26693244654245    0.24791856162175
C          13.02520046703623    6.88797034027478   -0.11236858906573
C          13.93595193354648    7.60324487918190   -0.96975163049071
C          13.86518401003495    8.97440104465588   -1.26117047214750
F          12.89800142800848    9.72568179418941   -0.72495314699983
C          14.79635448166351    9.59525053528413   -2.07688644393072
F          14.65185523076788   10.89524846139597   -2.35124694380419
C          15.84174655897831    8.88341713821117   -2.67353472378725
C          15.90004681042407    7.51166837067115   -2.41338160306246
C          14.99549749297744    6.90015267185644   -1.56775572975259
F          15.11868282673982    5.58571613908886   -1.32797973960151
F          16.88540782004494    6.79140639113445   -2.96769756072482
C          16.80992689958427    9.51236347107450   -3.55494172211808
C          17.48298130928920   10.63890846981701   -3.24580086636941
C          18.40239630953655   11.38470821825141   -4.09596310756610
C          18.51345629310283   11.26725387302655   -5.45348162274193
C          19.39375274035804   12.03738079447001   -6.24413623895622
N          20.09231457554079   12.62897989469150   -6.93600913303155
C          17.74605057542479   10.38777883122464   -6.24828974197000
N          17.14385575519114    9.71102019109710   -6.95279141104563
C          19.11041964800900   12.33502815901292   -3.25176732733657
C          18.60000147477528   12.24299731946904   -1.92405084251322
C          17.56106595503691   11.20490446973523   -1.85991410855900
O          16.96558041970909   10.81975687260343   -0.88069008370803
C          19.07745820234016   13.02716168424659   -0.91266645023278
C          20.10501967465146   13.95625443066313   -1.18712702751559
C          20.62682947290164   14.04858354042975   -2.51061570130705
C          20.11422050238692   13.22423688606223   -3.53711971764201
C          21.65892207510652   14.97354942159021   -2.77075483065599
C          22.15164428649421   15.77065580777926   -1.77388769903289
C          21.63608436881554   15.68022435156950   -0.47192009216806
C          20.63435903799418   14.79310606974515   -0.18485015687680
H          14.27584497121059   -9.57281121866979   10.81754226713733
H          12.17123720239461   -8.22892458755568   11.52689781688923
H           8.80129816890351   -5.33886007493654    9.86169067297002
H           7.72194957363591   -5.94065528363889   14.58468647521600
H           9.35223587043300   -5.58224994345856   15.18216864763281
H           8.89825889815178   -7.24476019273838   14.81326838226614
H          13.62706573687123   -5.10287799541036    5.19108143767067
H          18.42258085400448   -5.33603224313798    4.27750625805549
H          18.69871127016310   -6.63848181631872    5.44529355765547
H          18.93068994063777   -4.96193534829448    5.93407128203159
H          13.22309505512455   -3.20819902166158    6.53213526763231
H           9.37254034372187   -0.93991945593089    8.33008901207812
H           8.40366861059212    4.17467565365443    4.96449341937321
H           4.75678799653287    6.22029433496222    2.60424871206430
H           3.13256464553484    7.69296871267149    1.27412337440222
H           3.80766899044570    9.05463231619304    0.35515901983968
H           3.70169897594061    8.85850950643367    3.41098127215490
H           2.64337310048601    9.85564013418172    2.40772714975798
H           4.37127661765955   10.21321568585938    2.49831011513964
H           6.29892497304189    9.27356900564616    0.18122731334222
H          11.32421944469056    8.17656165820144   -0.11428627212668
H          13.39048807753615    5.92512194640561    0.22650667560088
H          16.99908649684023    8.99188372606162   -4.48534688638939
H          18.67328203549242   12.93889298096212    0.08479928678771
H          20.53451698301053   13.31117157450405   -4.52660067272383
H          22.05133577744671   15.04050032559141   -3.77478325407310
H          22.94187244206311   16.47595418458098   -1.98290856318037
H          22.03729875609947   16.31679747974740    0.30234338520331
H          20.23382608686866   14.71886098776983    0.81548670817984
