129
 SCF done       -218.594107028155          0.000384089708
C           2.80931793882868   -8.39523773444134    6.07391008412332
C           2.34036755609239   -7.63330584146509    5.06526023681274
C           3.05191937858131   -6.40625710363672    4.91844641808229
C           2.85813030595825   -5.39596744693793    3.95886470276504
C           1.76784901939030   -5.46362929003022    3.00468471386017
C           0.47078680450500   -5.81898649411532    3.23520734550334
C          -0.32115200973406   -5.77157763286677    2.06670097948877
C           0.35163380708415   -5.39067975434455    0.94298656892774
S           2.00951546519859   -5.06888137851325    1.32515202793768
C          -0.15814159791733   -5.23555265010499   -0.44271552445451
Cl         -1.99864241266304   -6.16672492571115    2.07924945586397
C           3.75390299882204   -4.33340523737220    3.98355690338589
C           4.80410182319637   -4.22473159498356    4.92741571741614
C           4.99155738939694   -5.23096858961929    5.89345766438676
C           4.09585821478011   -6.29511559528001    5.86626122701274
S           4.14213927630123   -7.68561063991686    6.91601055883799
C           6.07569610450290   -5.15157616538121    6.85245855484115
C           7.37381927136699   -4.79695827593714    6.62549221770072
C           8.15558667835583   -4.81441825267831    7.80133434579776
C           7.47408134417530   -5.17138332820945    8.92761338997397
S           5.82074196683371   -5.50927712822883    8.53832651763522
C           7.97253670480785   -5.28683577823393   10.32144912686578
Cl          9.83154178992017   -4.41292368696638    7.79404870892968
C           5.52786774933411   -3.01661473948317    4.77370701517139
C           5.07254451925640   -2.23191817252724    3.75478130948369
S           3.70641992037552   -2.94986552022307    2.92448129508295
C           5.58434589304412   -0.97513707713672    3.32756798073205
C           5.07763349488386   -0.14403386217442    2.35206094789572
C           5.85450725711649    1.00679980940197    2.18929315378828
C           6.96369024398118    1.04204334184425    3.04680628599006
S           7.04751270007120   -0.32882209139480    4.05964322273099
C           7.69646402538921    2.23386363467593    2.79257808811172
C           7.04463836584780    2.94955273537997    1.78118521119086
C           5.86237569473820    2.20819575591201    1.37021999852719
C           4.95345380441331    2.56727294126958    0.41805011485272
C           3.84105682074779    1.76275638694502    0.09475946543069
N           2.93377524640982    1.11502390090816   -0.17464676248098
C           5.06514943276287    3.77250684301817   -0.30546633396917
N           5.15259709568416    4.75389479687807   -0.89285212036999
C           7.70689512363085    4.13331370914601    1.43972813212532
C           8.85793677187850    4.32329451999363    2.17372146628110
S           9.12087316236887    3.01375250417047    3.31719262492347
C           9.81124957932773    5.40051357440356    2.06783615049377
C           9.50383137151223    6.54759283510577    1.31992791348313
C          10.44561647307163    7.53728772811050    1.18620196723140
C          11.70876470144881    7.41327078210420    1.78394206106120
C          12.01339027240470    6.29607721806307    2.54918539605538
C          11.06421228811461    5.30475408854675    2.68587145552893
C          12.49583499645318    8.57154709172129    1.42571845104599
C          11.72129946009150    9.41506962238417    0.60693318218706
C          10.33185863278031    8.84028922031442    0.41598351506498
C           9.25912823518908    9.68738622781077    1.13910883279598
C           8.93661432590435   11.04699324600629    0.53546370762010
C           9.95672212974556    8.50397000063377   -1.04742015853904
C          10.45586025236634    9.45018077516413   -2.13261705854843
C          12.27052701780920   10.58405297857057    0.13405219435207
C          13.59976734124129   10.92061617151136    0.43405702804803
C          14.34657524692896   10.06846865385508    1.25475174436514
C          13.80219249988733    8.90377868188629    1.75437375006004
C          14.13577600297818   12.13735911539162   -0.14117772843149
C          15.41713970963831   12.53201568655192   -0.12265196902538
C          15.93486991037359   13.73389930813815   -0.75221597391837
C          17.15898098779020   14.26045211234703   -0.29838328892423
O          17.76941491852410   13.66406357133530    0.80295483509353
C          17.19485520753150   14.04505584243198    2.03506146583744
C          17.73654274492129   15.36632679910546   -0.92745861793080
O          18.92095061627329   15.95301289536342   -0.60078292983492
C          19.88101873292876   15.26789010768981    0.17153356509883
C          17.04858917627176   15.98354167907191   -1.98716023501139
C          15.82656733898672   15.48086381592659   -2.40236039674108
C          15.28271337242724   14.36121481917629   -1.81076948417947
C          17.64472886442098   17.15453797053382   -2.66428707327274
C          16.97446925370069   18.38320020704159   -2.62143188448609
O          15.83154162968866   18.37987936182034   -1.87273505073414
C          14.85311669135342   19.38081345849390   -2.03065624686268
C          17.53674862655967   19.49156787202767   -3.28151387634177
O          16.87882881342874   20.69663482220992   -3.19356201357646
C          17.41223119800465   21.80791015470911   -3.86632157530931
C          18.72575279318998   19.33068095319785   -3.98101025706869
C          19.37646686051029   18.10941304034418   -4.01639801055815
C          18.84346315038728   17.02617144976680   -3.35188166078722
H           2.45703430625616   -9.35703159942270    6.39170088523316
H           1.53301772926078   -7.92965989409241    4.42186638098345
H           0.07687048483064   -6.06531399028520    4.20394161588907
H          -1.20962321450004   -5.50925738902392   -0.48026028085746
H           0.39901295578097   -5.87094924842074   -1.13022807735245
H          -0.04847535542980   -4.20414567664695   -0.77647008058521
H           7.77559001570234   -4.57214574110995    5.65481383975693
H           9.02578698189290   -5.01993214357743   10.35760939298233
H           7.85237380171766   -6.30584286914831   10.68785505870508
H           7.41603415686131   -4.62484799470790   10.98401338942383
H           6.34123519715386   -2.72323895165304    5.41220122132754
H           4.18807980856562   -0.37916040473395    1.79571661345216
H           7.37135541321283    4.80893519794464    0.67535087181240
H           8.53582890691017    6.64583249257569    0.85450031816802
H          12.97837985370336    6.19625589756816    3.02262837754716
H          11.29317735357533    4.42310939137386    3.26806071769585
H           9.59465162731411    9.83026761875514    2.17046273093230
H           8.34053683985879    9.09642861226216    1.17399493753291
H           9.81135530278821   11.69004521877295    0.52485079730135
H           8.17174709367199   11.53220009045467    1.13915932846619
H           8.55115036668329   10.94720340888584   -0.47517311160872
H           8.86856605044832    8.43305542380052   -1.10643935959749
H          10.35864293514246    7.51159699238599   -1.27025183099452
H          10.08542066045256   10.46120311147359   -1.99477038478191
H          10.10628383985934    9.09286970743261   -3.09967694814614
H          11.54234254101351    9.47361975519331   -2.15420529099593
H          11.70504387332034   11.25635194802083   -0.49149755929935
H          15.36339720976527   10.32543488542938    1.50801453535844
H          14.38753702535944    8.25514783502339    2.38933623544745
H          13.40476223517136   12.75949276292255   -0.64220876692356
H          16.16256079284420   11.93534308445251    0.38531091035508
H          16.13159585724959   13.78550299954470    2.08090023954929
H          17.30007637929328   15.12306660366357    2.20628871613873
H          17.73794560813951   13.49922208098249    2.80555329885141
H          20.81876152817176   15.79710969556809   -0.00395309142188
H          19.98284512215850   14.22640711447906   -0.13965032944906
H          19.64806105011255   15.30176898830592    1.23905219129826
H          15.31509221043866   15.96504904347820   -3.22000636693915
H          14.35680752826016   13.95323782750582   -2.18402986945511
H          13.98159383379739   19.01141265422368   -1.48900721588039
H          14.59071769799579   19.52784903961975   -3.08119533966742
H          15.16940744920594   20.33434503367401   -1.60305932909084
H          16.72347573957923   22.62716393736704   -3.66279049452144
H          17.46418954604550   21.64176147683689   -4.94741785750367
H          18.40590117611302   22.07129582491631   -3.48946205279549
H          19.16436293658948   20.16858176706521   -4.49833357282371
H          20.30174396189369   18.01638227664108   -4.56415962449412
H          19.33883902183506   16.06836727377665   -3.37071053127038
