154
 SCF done       -283.896863231506          0.000370251186
C          -5.11818737394097   -0.68257832169818    3.29711768167577
C          -4.47803939093252    0.35207472471342    3.87850487847041
C          -3.19493554967375    0.60090486556841    3.30912894271560
C          -2.26885201208106    1.60223398854604    3.65335178222984
C          -2.58424883588642    2.60977544889581    4.64795548493037
C          -3.74846849713723    3.30515762959206    4.79800364897087
C          -3.70455896035225    4.21228263988393    5.87982810550741
C          -2.52524987443839    4.21794111791655    6.56481084623343
S          -1.42440154730347    3.08237520773355    5.85932124874751
C          -2.13595981170979    5.02997860158842    7.74533361082238
Cl         -5.04105156875168    5.22216983057514    6.28500588290545
C          -1.05091032275877    1.57798268730888    2.98488809739468
C          -0.73854910491061    0.64216042214315    1.96896098154596
C          -1.69206242524690   -0.31772020984147    1.57851712169649
C          -2.89055533468963   -0.32760158234809    2.28620972072488
S          -4.21513241525254   -1.43026825473542    2.02693677185785
C          -1.43137446736445   -1.22005171722833    0.47524594151387
C          -0.86056026507638   -0.91995710242879   -0.72840743560006
C          -0.76608064368643   -2.04099812072727   -1.58111321308219
C          -1.25010609244387   -3.19881481425918   -1.04543004113791
S          -1.85149670940886   -2.90871091732446    0.55221324027336
C          -1.30097313467393   -4.55369698152542   -1.64990459121860
Cl         -0.09597007567462   -1.93516523726735   -3.16464256001447
C           0.57803038544514    0.81729151178009    1.47368882242707
C           1.24005514033008    1.86643653348475    2.04389363887484
S           0.26305812994885    2.69023773042501    3.24286774626562
C           2.56120437967899    2.32411098463900    1.76879617485069
C           3.52256106980279    1.72276649014746    0.98139194424717
C           4.69991820586008    2.47452750191488    0.93044050897814
C           4.62327153865901    3.65651676662917    1.68046208568984
S           3.11757095429558    3.83869173574080    2.45900235600122
C           5.85313636730810    4.35670177031584    1.54729149017541
C           6.70671762650456    3.61407910542204    0.72252280760333
C           6.01550761862960    2.40254758755678    0.31039018295037
C           6.49768491580023    1.40565899799890   -0.48669152731694
C           5.72831011281901    0.27071806871651   -0.81671545625321
N           5.10575695579789   -0.65473880739139   -1.08352119635138
C           7.79897728892096    1.44289806083178   -1.02889678499571
N           8.85861169849285    1.47176055839271   -1.46683318056016
C           7.94319016830853    4.24053674640886    0.51905517198512
C           8.03018287294216    5.45080865014729    1.16957848293983
S           6.55965015908304    5.81875519823350    2.06207722364933
C           9.11884313223573    6.39839731102453    1.17759939443555
C           8.91215861579258    7.70281449527909    1.63653310544396
C           9.93154168041483    8.62609360480382    1.62676893645473
C          11.20755412083633    8.27596639199198    1.18261322705388
C          11.41931306438088    6.97443945265113    0.72710190562625
C          10.39526025258296    6.05272473561574    0.71938040458506
C          12.26485941076234    9.29430651223533    1.16427889480740
C          11.84341939988384   10.60447811904763    0.63326833047266
C          11.12496164823398   10.66994301777867   -0.55861355573602
C          10.72053262643867   11.88935540855240   -1.06841370018521
C          11.01379145040550   13.05953546417784   -0.38829886105746
C          11.70692039216058   13.00252729356599    0.80966794215524
C          12.11818145382546   11.78559255026199    1.31887678492188
C          13.52123181784811    9.07302326241420    1.61192019600251
C          13.92620564784531    7.84133772620260    2.30533921817265
C          15.15168838145193    7.25032590440823    2.00214563946407
C          15.55294415826448    6.09545820697331    2.64664719887406
C          14.74439141236275    5.52176614641384    3.61372054452209
C          13.53497675942831    6.11461895889574    3.93831363754602
C          13.12768540419367    7.26591596753018    3.29206140806947
C          14.56526865519154   10.09876852387219    1.46357936433459
C          15.32381868404615   10.48958825785378    2.56645995451388
C          16.22327576770492   11.52776379848136    2.46559944502081
C          16.42112963359882   12.18832614391308    1.25027385795763
C          15.71550501457046   11.74263870358508    0.12762221315823
C          14.79897462661966   10.72120042656026    0.23752245353805
C          17.29215672042143   13.33707456391430    1.16450649225261
C          17.86152632868284   13.90014890140695    0.04562880847263
C          18.57923367394335   15.06536025758180    0.34392841033248
C          18.54462709733706   15.39030200272164    1.70535210656620
S          17.65813039026490   14.25497482369625    2.61823733903205
C          19.24984843888646   16.61034138938469    1.89919719240898
C          19.73503120664240   17.04713257570057    0.65902597704124
C          19.33959235986415   16.08586161255371   -0.35985255643455
C          19.61304464337466   16.13857610296475   -1.69509713305624
C          19.15887960589870   15.14960999803760   -2.59232656834776
N          18.78845439352367   14.34803841980577   -3.32415909289714
C          20.36486977633982   17.18462051008107   -2.27012640080085
N          20.97589115049625   18.03060028841638   -2.74524848931669
C          20.40782539438636   18.26981344842946    0.73934504198230
C          20.42703339057054   18.76471103537764    2.02597604988739
S          19.61638460182221   17.69743644541936    3.16317650602225
C          20.97039208222685   20.00021901387496    2.47534211726779
C          20.92219363441330   20.52525377708502    3.73359941711909
C          21.51925166274894   21.80553127758435    3.84025521915366
C          21.65680107166566   22.60859134470851    4.98842842121270
C          21.09302271159432   22.24216430576635    6.27149107036349
C          21.62803244185621   22.44182302515961    7.51159962790140
C          20.76994000542539   22.02371781844273    8.55180385712469
C          19.57565967531088   21.51599163497535    8.13193391004470
S          19.50156411311164   21.53894499769902    6.40251014757947
C          18.44442432702355   20.99835172055913    8.94227136214474
Cl         21.21064542699453   22.15286699420455   10.21148857924955
C          22.34690221207055   23.80820512367270    4.82612392878521
C          22.88396470570190   24.23887089571547    3.59023858617355
C          22.74107917846104   23.43933910140509    2.44186952789902
C          22.05294186586699   22.24086701277255    2.60257322964710
S          21.77497377825638   21.06799989567420    1.34362850361393
C          23.27808362680954   23.81670075273607    1.14863610605686
C          22.69938159369076   23.65411707218019   -0.07667491624749
C          23.52961493201624   24.08376637519785   -1.13513873391903
C          24.74498860102859   24.56191603510668   -0.74195327256657
S          24.87536367999467   24.49531836937190    0.98333449978697
C          25.85641793336942   25.08347889663479   -1.57664355778759
Cl         23.03150943894904   24.00377266080523   -2.78127605177160
C          23.47375274026792   25.53286787965536    3.69779087913616
C          23.39364609628368   26.04643471807727    4.94140250577539
S          22.60527692180450   25.00163737958511    6.06998273510675
H          -6.08659913216333   -1.07612739670942    3.53680855544417
H          -4.87997604587853    0.91551655917839    4.69999017320480
H          -4.59423221287991    3.21106151317907    4.14226331031358
H          -2.95102443765299    5.69595651769475    8.01737447263216
H          -1.24976786729965    5.62423186074189    7.52557441617070
H          -1.90620175821211    4.38712810034952    8.59461871105466
H          -0.55797195787989    0.06858208917774   -1.02080260591052
H          -0.95121131500319   -4.50906165150474   -2.67826401766687
H          -2.31868346402162   -4.94135550611469   -1.63565773939653
H          -0.67014158936661   -5.24639079132981   -1.09321704511458
H           1.01951941518625    0.17645938751796    0.73393039756782
H           3.36996053850266    0.78541819630733    0.47956973218927
H           8.72993452627122    3.83860655392604   -0.09215733639514
H           7.93281873185251    7.99187098201487    1.99106353676707
H           9.75030340496381    9.63182875479121    1.97766050840798
H          12.39640998406754    6.69184043685059    0.36452861403862
H          10.58512959966474    5.05260545423072    0.36229235723128
H          10.89803068601046    9.75706227325448   -1.09127807567567
H          10.17365654113982   11.92707646048470   -1.99915747521877
H          10.69782389782931   14.01206725056501   -0.78694402460880
H          11.92599581371329   13.91095527138478    1.35161630338492
H          12.64548414311156   11.74468450438138    2.26070653494042
H          15.78164143951112    7.69618778550865    1.24525072150167
H          16.50036055962956    5.64183882342207    2.39476368897760
H          15.05827085468929    4.61962879507244    4.11737632682086
H          12.90735185310123    5.67889789602322    4.70192986358764
H          12.19159907946004    7.73363834184081    3.55976377941536
H          15.17362529046742    9.99476222774137    3.51533755461913
H          16.78051505224487   11.84308839943997    3.33662363522020
H          15.86298518022090   12.22549771587793   -0.82572283156151
H          14.24569044145447   10.40213436291718   -0.63305228672688
H          17.77076041992820   13.48025628163533   -0.93907219264292
H          20.85525257662635   18.79024000371098   -0.08833038768813
H          20.47584995297336   19.99991125012913    4.55797999437713
H          22.60963473681891   22.83973507299166    7.68844277900889
H          18.72011939710543   20.99476875590854    9.99384091775585
H          18.18528212475533   19.98509258838702    8.63796242067857
H          17.56126734404524   21.62376377607842    8.81197561158780
H          21.70600638814777   23.27594368903754   -0.23047248649295
H          25.55616560364278   25.08779655902064   -2.62142041309387
H          26.74411645570389   24.46086591538157   -1.46699050727988
H          26.11926121119972   26.09756133645110   -1.27771776902403
H          23.92347766416627   26.05256646019097    2.87278877178271
H          23.75506085654468   26.99494120812818    5.28721754520417
