82
 SCF done       -167.051715386391          0.000839605912
C           1.56515041418627    1.35973066279928    0.31739809253625
C           0.46311059071254    0.97106241554526    1.03981905150753
N          -0.15959617895633    1.90672762460885    1.91762415177663
O           0.46491902595332    2.91785610403729    2.16836763835887
O          -1.26493618472656    1.66110074745839    2.35547466947871
C           0.06961104324894   -0.37925259893117    0.80678524369942
C          -1.06161507048657   -1.07938880650296    1.47510674603108
C           0.90756243852085   -0.97990570463255   -0.11121764831631
S           2.15082536062916    0.11805078680294   -0.67496790435957
C           0.89378530242668   -2.30467439882627   -0.63909716723541
C           1.79755839036968   -2.82101753194989   -1.54771658841845
C           1.51864617254672   -4.14742177215207   -1.88011637884438
C           0.38421390579171   -4.64682785127402   -1.21763522045623
S          -0.32905160268145   -3.48658392216876   -0.19044284954691
C           0.18176436937344   -5.99206461098115   -1.61380151201878
C           1.18942328732615   -6.34178413820883   -2.52729750988361
C           2.05461567884606   -5.18981012400151   -2.73793001473099
C           3.12033961050719   -5.10624815837649   -3.58592683777913
C           3.88791393284327   -3.92859727795288   -3.70294269089867
N           4.50629759540149   -2.96771513116541   -3.79595346843767
C           3.49496957129097   -6.17644372358224   -4.42630927460862
N           3.77162801030001   -7.03592291059362   -5.13315078680492
C           1.09706814468182   -7.65925041160620   -2.96616328266899
C           0.02022752569976   -8.32329156700603   -2.40081745005558
S          -0.89342113289106   -7.28716206557786   -1.31289478105692
C          -0.36771892397267   -9.67899018471121   -2.61228917442567
C           0.45409409108733  -10.58486524216357   -3.24007992150969
C           0.13088840492456  -11.91599599954685   -3.48489411561976
C          -1.16717691165982  -12.47140421998582   -3.09649570990499
C          -2.12384742135229  -11.76960519270269   -2.45058963744078
S          -1.96045876798554  -10.11857034630611   -2.01002204461580
C          -1.13484290489378  -13.82619531258418   -3.52816647445756
C           0.09195376508990  -14.10950063765061   -4.13553603729879
C           0.15884201546947  -15.45348655354012   -4.56719725714386
C          -0.98501086632542  -16.13139077347884   -4.28659816877621
S          -2.18910768599609  -15.18093787378000   -3.48839828883503
C           0.90462244727750  -12.91853371071509   -4.10885379070515
C           2.22464913030274  -12.71611077379037   -4.55896562225086
C           3.02640213923978  -13.60297530468488   -5.20975745009248
C           4.35794558826041  -13.30611387113655   -5.58254599334755
C           5.10547172831358  -12.16601508135449   -5.30797902521492
C           6.38973306954188  -12.23934577877308   -5.82979771205351
C           6.64154173205729  -13.43922072497469   -6.51893919597357
S           5.28457119253377  -14.48074593203764   -6.50755099471426
C           7.96548932727728  -13.40117453582602   -7.01335376540183
C           8.55321500167499  -12.17517846150959   -6.64214180797823
C           7.59344403456868  -11.41636902515534   -5.86415249064741
C           7.77776913850530  -10.21653707620877   -5.24150311572396
C           6.77166415604989   -9.61836905202998   -4.45327276299322
N           5.96695530766776   -9.14571655091047   -3.78606515869392
C           9.00551852229134   -9.52170115178438   -5.28454228437129
N          10.00665824708961   -8.96320277520726   -5.28550762645326
C           9.86265888446563  -12.03620406364985   -7.10332512412051
C          10.28068072256729  -13.14039811566692   -7.81643082492441
S           9.03268551551734  -14.38334280083586   -7.90671614043185
C          11.55289948087511  -13.41806662321918   -8.39867132681729
C          12.53242254385443  -12.56431721917491   -8.89352910560449
N          12.33252542662588  -11.17628759450598   -9.11185137802962
O          11.18814516923665  -10.77276509347160   -9.21206448920020
O          13.31532252199312  -10.47003082077601   -9.21929963994879
C          13.72639763833587  -13.23863245754642   -9.30178757710483
C          14.93414001167770  -12.58178781642896   -9.87085281913395
C          13.61411821825979  -14.58128640258276   -9.13331316519871
S          12.10493543741785  -15.05960403041649   -8.46130658281842
H           2.02655214427770    2.32747667499150    0.33473232748935
H          -1.54628686201520   -0.42614727015980    2.19320239097665
H          -0.70479042434540   -1.97279674293528    1.98764997898425
H          -1.80264236838793   -1.39029405698682    0.73856202653918
H           2.61883264779662   -2.24896722074226   -1.94082493636321
H           1.77103585123967   -8.10470362016396   -3.67340978580300
H           1.42357181007537  -10.22743350189636   -3.55253391015836
H          -3.06899903855942  -12.20018255759941   -2.16012326306064
H           0.99630944680529  -15.91362638287735   -5.05787401931035
H          -1.20672361918639  -17.15837205075178   -4.50205712248526
H           2.63429825170831  -11.73789506833604   -4.35152235308902
H           2.65797942090603  -14.58172181458912   -5.47440802013157
H           4.72748935056443  -11.32968964861283   -4.75092449869013
H          10.47845653172520  -11.17520731137120   -6.92223592142438
H          14.66583935860174  -11.94632995591867  -10.71283839922975
H          15.64715776213070  -13.33330281985921  -10.19958826797307
H          15.40177132705037  -11.94235105369770   -9.12456237218847
H          14.34240108095302  -15.33137605331972   -9.36783428137611
