109
 SCF done       -215.376135301321          0.000694302874
C          -4.68388702462706    1.11314075930162    0.22572548059276
C          -4.25748922280959    1.26229630309216   -1.04392098815154
C          -2.84428871462091    1.12199781201805   -1.17600289910789
C          -2.06974860494062    1.19614843638722   -2.34748542698373
C          -2.68864440800987    1.38586564224075   -3.64627230062810
C          -3.78982231091372    0.75977449101952   -4.15178581967519
C          -4.11605770589078    1.20030800837192   -5.45387929321145
C          -3.28461688536423    2.16050173657867   -5.94995506798628
S          -2.05215232250644    2.53373100225922   -4.79149470692486
C          -3.33217984745947    2.84633869257036   -7.26623840646093
Cl         -5.45899944226854    0.56527282982677   -6.32784141627798
C          -0.69571849789184    1.06684967489180   -2.19462680546112
C          -0.06754067489334    0.83036194259076   -0.94684902143081
C          -0.84454581142771    0.72956012728096    0.22338275724844
C          -2.22124954253748    0.89295762932177    0.07171784278937
S          -3.40510834662111    0.80789073406354    1.34952796217863
C          -0.27004343927243    0.45732293920884    1.52546110011438
C          -0.64940609609562    0.97082063238042    2.73208531349184
C           0.08920279907995    0.44063681698518    3.81245249018375
C           1.02777051658022   -0.48296096421470    3.45905969807952
S           1.01342441040912   -0.70621962936888    1.74151029051922
C           1.96650301389597   -1.23952787159651    4.32568749179567
Cl         -0.18589194897843    0.93350988132775    5.43970422866756
C           1.34093763768477    0.74421279495518   -1.07827593340466
C           1.78523950503161    0.87496390816853   -2.36362076239149
S           0.46806685278225    1.12504444510129   -3.48908662395087
C           3.12075387846544    0.84375363679569   -2.85592334922064
N           4.21026556681042    0.63497169087845   -2.03633657258721
C           5.33381964534772    0.67410972911370   -2.80261952237219
C           6.72260814938187    0.58185897903681   -2.77306094172973
C           7.15298275066496    0.76473798500584   -4.09265122618329
N           6.05530248209618    0.95973747385063   -4.90689111302326
C           4.93571011788594    0.91326620010866   -4.14071410886281
C           3.54670550578907    1.01879133333254   -4.17225668022816
C           8.49293471943989    0.77480603053441   -4.55623277115470
C           8.87862865611923    0.93715402324128   -5.84659718571053
C          10.22309880376881    0.98261441534466   -6.29798231693549
C          11.40606669149871    0.92029270658126   -5.57915902369012
C          12.52714040796240    1.02704627254460   -6.40145108476148
C          12.20595536464440    1.16759867851372   -7.75794343616273
S          10.51961367242236    1.17025456791118   -8.02212557373072
C          13.41356896048372    1.27872105350400   -8.49993144470363
C          14.49320232681189    1.21421588722738   -7.60973004158384
C          13.98184261015317    1.04871090327408   -6.26630104688325
C          14.70156652935359    0.93524258077268   -5.11117117240431
C          14.08506520041382    0.77410252782752   -3.85426038393525
N          13.58734775934584    0.64248966263779   -2.82895072036519
C          16.11078942728096    0.97273868783966   -5.10068477569617
N          17.25744899656423    1.00140102111857   -5.08400796636209
C          15.73623774452527    1.32912935812635   -8.26000450216523
C          15.58921710604920    1.46150761005167   -9.60895857861907
S          13.91958969573893    1.46710044684418  -10.11711782801169
C          16.65898322364127    1.66385191169972  -10.63242833835640
C          17.08768071707667    3.10203345788037  -10.69073333752447
N          16.29363726857087    4.11348342510571  -10.42509032226955
S          17.12416011589417    5.50026424960919  -10.58936021771640
N          18.53824047041175    4.82500079575875  -11.00865375138988
C          18.40381584270228    3.51993131989240  -11.02126163284580
C          19.49134524144531    2.55425625198089  -11.39731956737782
C          19.19847601125261    1.26465701988969  -10.70174858897459
C          17.88421421358952    0.84224451876490  -10.36657870918281
N          17.86995363830008   -0.33824971476519   -9.78980044499077
S          19.39049146775998   -0.89089688959195   -9.66574733522164
N          20.11231139701979    0.38366371253384  -10.36573416536934
C          19.32400621701052    2.38538470367710  -12.87503406700218
C          20.03461558982874    3.01994742520242  -13.81922206746424
C          19.80026905156255    2.96448926950686  -15.26172817486265
C          18.65294208398812    2.53280803244558  -15.86882753702274
C          18.45152203568291    2.52643630334856  -17.26623352196190
N          18.23324812076208    2.49908764692829  -18.39222182614185
C          17.50573621886785    2.08265711129014  -15.18052620898458
N          16.53733336678393    1.72852858830684  -14.67482231912524
C          20.95580539645871    3.55261886040666  -15.91469904109326
C          21.83313997937372    4.06880281878974  -14.92496042338397
C          21.28654594166725    3.80237545425260  -13.58363010055452
O          21.76962348062521    4.11615917753110  -12.52159563431790
C          23.00722640551238    4.70941038604616  -15.24286208890384
C          23.33412231356694    4.84414841198088  -16.59507390993694
C          22.45650009554762    4.31707004635108  -17.57561893928249
C          21.26880979342313    3.67219613045670  -17.25742974625111
S          23.06513455376007    4.59247447982850  -19.17682199799418
C          24.45549480037861    5.39602527839076  -18.53613458590548
C          24.47302915101014    5.45856803548578  -17.18633087681343
H          -5.68804173036981    1.17264407693902    0.59733039184432
H          -4.90885744772900    1.48328636805539   -1.86900526869129
H          -4.32946155362063   -0.01519827091732   -3.63945689696632
H          -4.19629105502778    2.50163620155806   -7.82870238391483
H          -2.42996349523262    2.63620045486803   -7.83999421883198
H          -3.40164423614231    3.92542944980918   -7.13439083458748
H          -1.40267798720968    1.72583360877224    2.85644839622989
H           1.87438032017456   -0.89298249996512    5.35198516737984
H           2.99474264728925   -1.10067526320057    3.99402051596482
H           1.74483491906564   -2.30625141006049    4.29317032850686
H           1.99848756357996    0.60401225964320   -0.24083187650320
H           4.16179743104119    0.47016241792513   -1.04672553040525
H           7.36201459961642    0.40761245349725   -1.93123728632106
H           6.09388258179905    1.12475891652642   -5.89670343281821
H           2.90456012022757    1.20003583916054   -5.01069289788127
H           9.24312006793465    0.64578817121410   -3.79030121007311
H           8.13467039332964    1.04825839145511   -6.62437096470959
H          11.43994457493640    0.80907722542647   -4.51150195575527
H          16.68980985753977    1.30575074298971   -7.76498528928390
H          16.25414398853407    1.39036637587716  -11.61936829574028
H          20.47799442622109    2.95271537568546  -11.15371687828100
H          18.51174634566578    1.73050107086206  -13.16263239778299
H          23.65182164613387    5.09536220912253  -14.46854119114392
H          20.63482308392803    3.28309725564324  -18.03689851679566
H          25.18690530456316    5.77852447585270  -19.22131914449016
H          25.25772677211243    5.92029364764914  -16.61504466713505
