123
 SCF done       -239.904062443534          0.000788961087
C          -1.29688026111158   -5.69751424230125    3.89144361511413
C          -1.26295387131412   -4.37010114349007    4.12507058781807
C          -0.09452416105659   -3.74354062209530    3.60035929870286
C           0.28694528738351   -2.39347184844124    3.70282346463816
C          -0.58946664682069   -1.40590893728374    4.30287031938501
C          -1.93254175057479   -1.25457591709327    4.11621548222328
C          -2.46625738111741   -0.17597019611593    4.85563716670923
C          -1.55220196858713    0.49805228380584    5.61080565542034
S           0.01821282713934   -0.20293347995916    5.40692337516756
C          -1.75976072275251    1.66584566389667    6.50404668016566
Cl         -4.13725321704162    0.24115866204516    4.79370713656625
C           1.53404888009732   -2.06083025596009    3.18929853813737
C           2.39299512247814   -2.99228811911114    2.55487031977992
C           2.00451982647523   -4.34122608724865    2.43739761561879
C           0.75928083783856   -4.67598380550581    2.96716810417054
S           0.07556130000176   -6.27924446412751    3.01651012655622
C           2.84780361445580   -5.34836707394779    1.82740242589813
C           2.46365199097368   -6.40150040099847    1.04708733529658
C           3.54562249270834   -7.22461058343219    0.66763296412499
C           4.75715488225211   -6.82905437692146    1.15476005725706
S           4.56987524260969   -5.39394491424492    2.10309492799125
C           6.09093841048853   -7.45083607653999    0.96135616712535
Cl          3.33494972831685   -8.61273698183871   -0.32934878816393
C           3.57200927471162   -2.37454908023726    2.06981897092607
C           3.63668852151684   -1.03580568087645    2.33174996216161
S           2.22198409388585   -0.46207698633491    3.18913972950000
C           4.68665852788367   -0.13331269586613    1.99998321940265
C           5.85227398531014   -0.40718686121709    1.31237831112192
C           6.65970986852643    0.72550318656634    1.18221577202640
C           6.10060326033313    1.86474026879686    1.78084255100174
S           4.58477995572572    1.54762903029609    2.49513559934921
C           6.99879800530310    2.95077013016257    1.60935659753831
C           8.11740183997381    2.50254320369473    0.89512100471470
C           7.94558883286098    1.08716660920270    0.60557967272495
C           8.81351968794299    0.26540659082979   -0.05288666851407
C           8.53847767013620   -1.10189719817924   -0.26120306923000
N           8.32268501538734   -2.21572360347531   -0.42995227482736
C          10.04716670765725    0.72665742080684   -0.55668189621710
N          11.05363090942623    1.09396319584699   -0.96613700007355
C           9.06129939282885    3.51214836296293    0.67914190697839
C           8.67419510934213    4.72381957696734    1.21314035387641
S           7.10532935905684    4.60567596305901    2.00383573065755
C           9.46300983602328    5.92951685533731    1.29174285207396
C          10.84320382349980    5.81469806878080    1.33787073452205
C          11.66536249043869    6.91978225937230    1.53084790425868
C          11.15987040834170    8.19502025317571    1.71349699071994
C           9.74535403935245    8.38534270354948    1.65009923851082
C           9.06352669103154    9.60139338745199    1.77646021794869
Si          7.34053321794049    9.10416638354365    2.02805688720274
C           7.54361741304205    7.55514661952924    1.12339244742864
C           8.88679255343839    7.23250663728758    1.36805025792848
C          12.07160459159038    9.28755928078596    1.94144061767605
C          11.97384064217900   10.60843029823983    1.56086704321533
C          13.06252062816910   11.37063375629458    1.99868048872034
C          14.01567031033762   10.61496726453368    2.69297942548028
S          13.56671665827683    8.97301719434223    2.81971790143763
C          15.06781258813803   11.47945981269018    3.09994740063094
C          14.76319952870014   12.78340080929101    2.68156471136719
C          13.49553961265750   12.75907009368598    1.97100074040982
C          12.83077585559972   13.81821427416244    1.42444562123531
C          11.57403264679039   13.67042997647164    0.80260234057340
N          10.54239109149303   13.55277045196963    0.31495200331770
C          13.34262584953689   15.13185680664696    1.46358851386021
N          13.75479613287965   16.20169440744059    1.48491165320713
C          15.72377780466856   13.71906534513351    3.07695090310059
C          16.75825243589812   13.13351002554249    3.77379790349813
S          16.54588681999367   11.39629917794781    3.94960043973182
C          17.89587044556946   13.77101810365953    4.34370727523532
C          19.00886637137061   13.18473055486117    4.87047334660883
C          19.95552594396172   14.11155774321373    5.37400569109378
C          21.18692900707532   13.83826096367625    5.99892345553800
C          21.69712753458090   12.48446552238370    6.07621176106605
C          21.68167188409642   11.53091240390936    5.09900375446811
C          22.26880540891780   10.31630615331581    5.51459357683587
C          22.72936256356212   10.32232673836987    6.79869480791820
S          22.44407445841273   11.86864027148374    7.52432901886648
C          23.39320777906941    9.23076220972066    7.55508283145923
Cl         22.38585646354995    8.94979565905016    4.47108865243638
C          21.88054864666792   14.93131100600432    6.50912827715796
C          21.41542770989182   16.26391879296135    6.40821174781150
C          20.19526226464038   16.53998102524988    5.76442750719458
C          19.50503673833431   15.44769057309721    5.24745213484365
S          17.95944377479438   15.51989162117681    4.44408228914705
C          19.64136020976856   17.87657734514266    5.66864454738371
C          18.96736427307403   18.43564247438959    4.62184928054281
C          18.49543231947220   19.73597837562691    4.90712235028004
C          18.78463810050992   20.17947467306227    6.16411625698853
S          19.67568736521578   18.97099257882437    7.02585024104511
C          18.43416288317672   21.47415645622129    6.80091763048705
Cl         17.62630816899820   20.67087850474978    3.75182124950831
C          22.34660046922922   17.18501456729487    6.97153472635729
C          23.44417388169136   16.58347553976759    7.47275126498220
S          23.43158698833858   14.86422582050506    7.30003338572588
H          -2.05604420025203   -6.39825166961289    4.17907179395385
H          -2.02118807566349   -3.84294966598684    4.67355246115210
H          -2.51852616497233   -1.85756055784139    3.44743922282816
H          -2.80424037493179    1.96624708727703    6.47817350655189
H          -1.14093269627010    2.50454620438860    6.18705320863373
H          -1.48830631342808    1.41791172385487    7.52975774273017
H           1.45597993228576   -6.57392086837615    0.71823241887247
H           6.00469925425735   -8.29963821777842    0.28760785810765
H           6.49597994707189   -7.79515465135938    1.91290200673773
H           6.79174991578609   -6.73106909701191    0.54005194703907
H           4.34223376556722   -2.89895188889660    1.53765084709409
H           6.09409925248131   -1.38124686877659    0.93021209788069
H           9.97629879397114    3.37768590017967    0.13208092246962
H          11.30064984243654    4.84104640781320    1.25593666128160
H          12.73588609715221    6.77174136159016    1.54693223662050
H           9.56644812342030   10.47718705778529    2.14982952378252
H           6.81798152030885    6.78616834528790    0.92000766474065
H          11.18182890225577   10.98705155184932    0.94268509222160
H          15.68625801399956   14.77413790025919    2.87335860128493
H          19.13456591194482   12.11829202718043    4.91888906308448
H          21.30864977201197   11.69420314261078    4.10484777501714
H          23.46725090480998    8.34408675763489    6.93038616261738
H          22.82694101516167    8.98584022181004    8.45296627900280
H          24.39415406297211    9.53229674359178    7.86215286285647
H          18.83433334441228   17.96292070724489    3.66665851693057
H          17.99071141153734   22.13639848234377    6.06162361461632
H          19.31980671378841   21.94869320510509    7.22096233412779
H          17.71934810118625   21.32243731777859    7.60999026908754
H          22.19894867721224   18.24854392966337    6.98460142372557
H          24.28896874484518   17.04475107341595    7.94548253711640
