118
 SCF done       -222.232397432828          0.000659670269
C          11.37202980354404   -8.12082414785963   -6.79240733468361
C          11.51293946751301   -7.80005885253936   -5.49065216863920
C          11.27933691129613   -6.41793837543440   -5.22929081568199
C          11.32473301646165   -5.74316472682523   -3.99575818659379
C          11.58848795555837   -6.41546398418928   -2.73797736736847
C          12.33731694836923   -5.96316033618004   -1.69024222452217
C          12.33065220673739   -6.84907181329652   -0.59074024416642
C          11.57721236226594   -7.97117328121524   -0.77208155703358
S          10.85801146499836   -7.94950321269794   -2.34709312121447
C          11.34289972829058   -9.09957851100454    0.16399493873937
Cl         13.20819464998448   -6.52190926524006    0.85467085486498
C          11.07997691167008   -4.37412532227614   -4.02974186740387
C          10.76450945431544   -3.66461716170748   -5.21434049222140
C          10.70342033413673   -4.34282345048087   -6.44681127992569
C          10.98118550029966   -5.70786580622467   -6.41614575293497
S          10.96134089474262   -6.77446788780039   -7.79453319484273
C          10.35691721570286   -3.67760464889789   -7.68629603513036
C          10.88916074685501   -3.88707934686051   -8.92644702637697
C          10.28386800095149   -3.09124046387292   -9.92272885834324
C           9.28376598971161   -2.28040282835579   -9.47120459353359
S           9.07998010556781   -2.49156201382506   -7.76608150701395
C           8.44111770627488   -1.32324820791795  -10.23065088801506
Cl         10.78169496872007   -3.15052466665836  -11.57023416051091
C          10.55800247939047   -2.28551637469225   -4.96500125358848
C          10.67590961655763   -1.94181154292716   -3.64906550682865
S          11.06890545156214   -3.32003557791471   -2.64298896828918
C          10.53364484752138   -0.64435586619612   -3.07948020834432
C          10.14405214924177    0.51359282547236   -3.72330290952126
C          10.12802747225601    1.61023759882654   -2.85898920349269
C          10.50954091595381    1.28003780503448   -1.55022242983145
S          10.88035286783389   -0.37614805763099   -1.38044409838915
C          10.48163050304522    2.46247651284398   -0.76037854145614
C          10.07896988670652    3.53132699773789   -1.57013558578498
C           9.84397853699924    3.03697412610796   -2.91559656592350
C           9.45790151321241    3.75940928184072   -4.00750628974536
C           9.26326678950590    3.16132450336825   -5.26951097239750
N           9.10397778309967    2.67842589499303   -6.29770600089546
C           9.23803950798866    5.15116785258665   -3.94764751992254
N           9.06872005767545    6.28511845661680   -3.90964534862215
C          10.03031231462850    4.75030837135635   -0.88357331910909
C          10.39510161727966    4.62743139540710    0.43767741099457
S          10.79807181462047    2.95666716506714    0.83898925576155
C          10.50398400110413    5.62513704563504    1.47916278204160
C          10.55780775689307    7.01271555210945    1.18918719943069
O          10.46085566150790    7.32819434899081   -0.12225233234809
C          10.37346101173506    8.65547463550296   -0.60090206753928
C          10.72242262461440    7.92475814162227    2.24298797109972
O          10.79654696021741    9.28108798334137    1.97458422163918
C          12.06848386772564    9.87649891578437    2.16235096337374
C          10.80157014420471    7.47143219791893    3.56784505755990
C          10.72919351281582    6.10880865264775    3.83702492421015
C          10.59207546326305    5.20923230142356    2.80782708013708
C          10.93985364406574    8.42343029974772    4.68107159806906
C          11.92762411089304    8.23583461903258    5.65299085327088
O          12.81993790186857    7.18046143602537    5.55177073409152
C          13.77990045028849    7.31999683641278    4.52029858796382
C          12.05100292697529    9.13886700807006    6.71946594022242
O          12.91715615484969    9.02089862128643    7.74948226078617
C          13.57331635653749    7.80365740873888    8.04536615171322
C          11.21217516301096   10.28117806679410    6.76234013533746
C          10.19950650380224   10.41047981679611    5.80252389442497
C          10.06448411982397    9.50598671032101    4.78189193200271
C          11.30943229399021   11.29884150496500    7.76595225652348
C          12.33840888531815   11.75001654118795    8.53067934781724
C          12.00198656091654   12.60151061994324    9.71084873550969
O          10.92963028404751   13.10634102384186    9.95274840404472
C          13.23050640366967   12.65159733634794   10.52436503987711
C          13.42499983068437   13.20657234796256   11.75601647256879
C          14.69674378941625   13.10725844276643   12.36381199336045
C          15.74427200621294   12.42438570456611   11.67990154546399
C          17.00780073680771   12.32169219124458   12.29379320493464
C          17.20289880606058   12.88104877565507   13.52580094232142
C          16.18669841486763   13.55845593664029   14.21323436342005
C          14.95336874820176   13.66514865443341   13.63291622136597
F          18.40990068985176   12.78501640724397   14.11282232888732
C          15.51478349713343   11.86523364426350   10.40112426587701
C          14.27742531742458   11.98327779769150    9.82753082843187
C          13.76775333189272   11.54030947732395    8.53226043753536
C          14.55111774545161   11.16993869720551    7.47014448772534
C          14.08380371130047   10.96071236376986    6.16122590114866
N          13.77868590244077   10.77874452224000    5.06844462220082
C          15.94767329858997   10.98833225488740    7.54042032810479
N          17.07873806306177   10.79106762196664    7.53298485653950
H          11.49416991555723   -9.08256942862346   -7.25067463203401
H          11.78110111836875   -8.51269258315681   -4.73341481521069
H          12.90575242338440   -5.05201463271661   -1.70201989002997
H          11.90225544694222   -8.93481172253152    1.08150584093975
H          11.66136774067685  -10.04142250510402   -0.28155610863854
H          10.28378134118788   -9.18457411173131    0.40590665253437
H          11.70723536423993   -4.55288957636704   -9.12812460699025
H           8.78399657898325   -1.27150978819086  -11.26101196509515
H           8.49416844886855   -0.33024594941932   -9.78619682663902
H           7.39785321991023   -1.63884756478594  -10.22181407911076
H          10.34600978916420   -1.56841637262214   -5.73453789751818
H           9.88245050706061    0.54774167675550   -4.76429260862695
H           9.73153680689792    5.67907064609212   -1.32671923741126
H          10.11910768398800    8.54902588983303   -1.65634277071804
H          11.32614439130988    9.18227006842591   -0.51314435099580
H           9.59466613039223    9.22095337255227   -0.08852446702651
H          11.96008730098127   10.90706541742969    1.83001524246093
H          12.83107795164279    9.37574087992584    1.55491151962491
H          12.37974008100992    9.86999568242574    3.20890940500726
H          10.77808508868789    5.76779766274279    4.85833604699702
H          10.53901068009087    4.15403834817054    3.03024408317558
H          14.29580660107059    8.28344001480496    4.59022707661336
H          13.32296393261098    7.22823661250793    3.53107114317861
H          14.49030034722703    6.50803562054463    4.66558040881189
H          13.92177214987327    7.91471696916170    9.07328747624944
H          14.43104306882158    7.63835243340778    7.39020065160202
H          12.89491317010527    6.95317482968751    7.97417796772759
H           9.54262363180663   11.26495311030861    5.85859032290074
H           9.29346402020536    9.62591025975187    4.03809338754455
H          10.36734607076241   11.79611839804951    7.98664430365558
H          12.61809706666503   13.71507735854262   12.26209328258017
H          17.81453761667024   11.81014453605249   11.79236524959697
H          16.39949504971167   13.97982471188034   15.18286095538445
H          14.15447475813798   14.18198740634950   14.14300392638146
H          16.32509938833730   11.34893680673653    9.91147577921003
