121
 SCF done       -231.171598427391          0.000789257663
C          -0.81908312424100   -3.44762328387887    6.29549918964916
C          -0.30451022627608   -3.62749863867268    5.06271361369811
C           0.60121932377397   -2.59426824184977    4.68124493874568
C           1.29957382586517   -2.45076126198502    3.46897196755680
C           1.15656751712908   -3.37796901338484    2.36269472432810
C           2.13901911690018   -3.85433480828801    1.54363523120227
C           1.64291133474023   -4.70545014857106    0.53209900264983
C           0.29031679470147   -4.88005992156326    0.55334660187711
S          -0.40023700484155   -3.98143907639570    1.86236413419569
C          -0.55910964224603   -5.69105601539055   -0.35477989770809
Cl          2.67618639333927   -5.45432083296188   -0.62377527419241
C           2.14696846630076   -1.35197822936391    3.36803248159758
C           2.31047128793848   -0.39376668887390    4.39822573679942
C           1.58998381229470   -0.52199035177174    5.60107272010573
C           0.76316002730388   -1.63813287544291    5.71163968520635
S          -0.23564705664642   -2.02617830178415    7.08622354343926
C           1.66291848876990    0.46093707184503    6.66266102729551
C           1.65188661061558    0.24643495354999    8.01100586041284
C           1.66425605291545    1.44548766354505    8.75614307760792
C           1.67206825053080    2.58182011861100    8.00141491483069
S           1.67733309046502    2.17184371386419    6.31980189593308
C           1.67501866070541    3.99820663833502    8.44628062347459
Cl          1.66724445167402    1.45461143417390   10.47802604474926
C           3.24521650852232    0.60872126314293    4.03961067798096
C           3.74753949490617    0.46449215646194    2.77952860663293
S           3.09989525479420   -0.94565322562030    1.96634785848198
C           4.70804322134732    1.28437936447502    2.12389344724535
C           5.12181823859037    1.21219495834195    0.81080739230974
C           6.10484341917495    2.16207990791217    0.51893413790036
C           6.44154183170729    2.95648445312632    1.62601269729817
S           5.53806983141701    2.55066016110100    3.01672003831854
C           7.47110451971414    3.85857027409102    1.24330331946072
C           7.77751554467368    3.63104530700565   -0.10598847303406
C           6.90865626396826    2.58222960331440   -0.61666005654220
C           6.84151882941978    2.13319747720430   -1.90323159077748
C           5.95627118946620    1.10904389054775   -2.29989599204981
N           5.23755488109164    0.27803752619010   -2.62783649919658
C           7.63620017887838    2.69247545441469   -2.92646706962442
N           8.26549042860556    3.15949195019000   -3.76406708796092
C           8.83404492229530    4.41629684660077   -0.56872339540001
C           9.31914625257303    5.25983715629793    0.41224234877790
S           8.46815059752773    5.05692699989099    1.93850706076481
C          10.43571616596210    6.15585825134864    0.33792727369888
S          11.19760730554430    6.41037066648203    1.92578612660682
C          11.90264770894155    8.00622677875471    1.72266664961083
C          12.02720334996039    8.91687870447148    2.72392323268220
S          12.83001837743502   10.34288497885423    2.19519641809745
C          12.97567608993361    9.71559786874195    0.60023499099217
C          12.45071750013053    8.46595130887458    0.49703770722440
S          12.45902954333964    7.51550707117521   -0.98161670837520
C          10.89683151916141    6.66506746805635   -0.83494318169151
C          10.15869436700120    6.57498456128266   -2.07050458631153
C          10.72616634238590    6.49604923467597   -3.28458271009138
C          10.01284383173568    6.44002208528460   -4.54331645340450
C          10.66439770167205    5.87509723821544   -5.65801976763537
C          10.07967147145835    5.79327089211994   -6.89937574501277
C           8.80244354960138    6.32600099620392   -7.03856909295462
C           8.15050884534894    6.89982705047437   -5.92371855690196
C           8.72294364957169    6.95638576718410   -4.67300222376301
O           6.95488959928395    7.37609257411366   -6.35259696527895
C           6.93055904993168    7.08438220046185   -7.68400014852697
N           7.98336207284174    6.46608444186950   -8.12454629647209
C           5.81504786734266    7.51670339714466   -8.49130560288225
C           5.78301286168652    7.18452557300293   -9.85112153790718
C           4.76963250453697    7.62772256179491  -10.67193764905500
C           3.76438429838027    8.43190989039626  -10.13704746140498
C           3.79279669602873    8.73906712861467   -8.76745454582104
C           4.79805968844725    8.29421467150355   -7.93735583960634
S           2.43063006883039    9.74603734607308   -8.32991678957354
C           1.86113144765214    9.71523902839783   -9.98431392918043
C           0.72943984799190   10.36954106252756  -10.40882832161682
C          -0.01931511290594   11.20109225703622   -9.57850705280384
C          -1.07225945048380   12.01913969116934   -9.91550699840952
C          -1.60666018775052   12.45796467463901  -11.17457179996291
C          -0.97282109599275   12.51927745342187  -12.39636319769037
C           0.37369558453512   12.20502223416622  -12.63933196599699
N           1.47153138825009   11.99166630311203  -12.91289884446733
C          -1.57480475436886   12.99772819292969  -13.57767355067201
N          -2.00035438797398   13.35307508419555  -14.58397642713272
C          -2.92258849031009   13.05047225092268  -10.90492119827088
C          -3.10284106943274   13.14167991306820   -9.51358879256468
C          -1.93319853534401   12.54658470924942   -8.83340924349487
O          -1.72843398875182   12.47241560032818   -7.63980812333040
C          -4.23924635318312   13.69939331078096   -8.96443350101575
C          -5.22309524416618   14.16773143015743   -9.82525582937511
C          -5.06053303396447   14.06606871077254  -11.19814951932717
C          -3.91405427024854   13.51150640670433  -11.75453599975190
N           2.69533633936262    8.99837499648437  -10.78791261792776
C           2.51091858695592    8.96563624085047  -12.21776813923590
H          -1.51533437333376   -4.07471817359712    6.81689977311349
H          -0.54826234505807   -4.46615941305976    4.43794905727311
H           3.18456601263683   -3.64250617012212    1.66776052032191
H           0.07019160039843   -6.22275361851218   -1.06405639320326
H          -1.25027393005091   -5.05336774679941   -0.90559325840216
H          -1.14712721974217   -6.41312241600075    0.21046300380546
H           1.66911881091784   -0.72505767048011    8.46817843728374
H           1.73962487862817    4.04040078821171    9.53062532196706
H           0.76263394805090    4.50219224262877    8.12767433548495
H           2.52089899551946    4.53428612311603    8.01771814350372
H           3.54662249905733    1.40944478322784    4.68999366688957
H           4.72220528767953    0.49656972393830    0.11480844167946
H           9.26672833972851    4.33967203486057   -1.54847988661612
H          11.70879761462706    8.81849618167812    3.74150873384981
H          13.45559956474159   10.28850551141921   -0.16644679620370
H           9.08154796090564    6.56642249806276   -1.96904311516318
H          11.80452567959748    6.42427940601675   -3.35031720099187
H          11.66111140779133    5.48357245713915   -5.51761102940940
H          10.58617848432316    5.35257563724388   -7.74196928448058
H           8.20820614172761    7.41723550542864   -3.84598547391206
H           6.58012470921229    6.57351625336200  -10.24153994844841
H           4.76418574215583    7.34998508069530  -11.71344947950450
H           4.80749513126534    8.54970355737907   -6.89046782851584
H           0.42021963177196   10.23452140009316  -11.43063722033395
H           0.20966784707335   11.18090503674944   -8.51654401901537
H          -4.34632698624962   13.76428272204985   -7.89248084280591
H          -6.12215935383546   14.61127277416950   -9.42416570436845
H          -5.83910184310679   14.42563547894078  -11.85441078484719
H          -3.81951595896570   13.44098807362892  -12.82583061475754
H           2.30139596888376    9.97452875927259  -12.58754045549317
H           1.68254096927829    8.30675550859797  -12.48676958295007
H           3.41959767817673    8.60576198374419  -12.69102526365477
