127
 SCF done       -224.928726512104          0.000760807942
C          -3.37722143164477   -1.61215823635833    0.17172766318120
C          -2.31162599040463   -2.08899614962095   -0.50103399981759
C          -1.13110070017702   -1.31419714663200   -0.29742942993800
C           0.14557978987798   -1.50659348200996   -0.85367719293857
C           0.44097802102098   -2.56567124556215   -1.79944839253663
C           1.56684641716668   -3.33424355437675   -1.86590734984809
C           1.54756881665822   -4.23988030488716   -2.94901739190980
C           0.42829675207657   -4.17153130124686   -3.72489127238021
S          -0.64530095970273   -2.96292303487024   -3.10416166921820
C           0.07879503065592   -4.96346639640623   -4.93131442102521
Cl          2.84149439224375   -5.33636939452779   -3.24998697459537
C           1.13483205548499   -0.60912516383623   -0.46143173221243
C           0.90510543482229    0.46862094221460    0.42643524829662
C          -0.37847813991892    0.67591369969316    0.96405892029516
C          -1.36124423603686   -0.24040549391668    0.59395651028578
S          -3.02682011943349   -0.20233378578431    1.10861012761931
C          -0.69433160249073    1.79177104987810    1.83356614384485
C          -1.52446724363244    1.80224611855858    2.91721392536479
C          -1.65790280126948    3.08445531475388    3.49301668240489
C          -0.95056874005474    4.06535008483555    2.86287948081489
S          -0.08176549210306    3.39587424460790    1.52326485242559
C          -0.87150216620998    5.51279371676697    3.18513679080197
Cl         -2.63866018586669    3.36976755647514    4.88000626847501
C           2.08789301279412    1.21941217018503    0.65688715213306
C           3.17013056218413    0.78153820597545   -0.04174809236804
S           2.78071746076106   -0.61609590144534   -1.02477593316077
C           4.51445744056483    1.31690057668811   -0.04485796902909
C           4.95257089648611    2.14339971247841    0.99936075237254
C           6.23113357139049    2.64326183888676    0.96854443727175
C           7.09456478493682    2.34511956014650   -0.09931110665913
C           6.67165472368193    1.52198675231201   -1.13187307350515
C           5.38958528559722    1.01144889175222   -1.09170513827505
C           8.35902466024138    3.01103585086501    0.13112189176424
C           8.28460159832877    3.70408338919893    1.35157688372240
C           6.92052922871502    3.53021970218419    1.97928016452738
C           7.01609402041303    2.84316306358732    3.35402368859167
C           7.72354664805805    1.49484358125413    3.29254237188178
C           6.19531351406198    4.88076406123449    2.12660230871907
C           6.05508558718868    5.62334374911829    0.80329939113547
C           9.35907640775291    4.41818220355344    1.82079789994774
C          10.54060976806700    4.47035955821582    1.06518606509261
C          10.58650033173629    3.79707479052072   -0.16381405441979
C           9.51667572022537    3.06159390557739   -0.63110556783262
C          11.71016530805268    5.19666171928240    1.49979299110567
C          11.97229158037680    5.60204023176027    2.75876784464606
C          13.14300924693745    6.31112795959666    3.15615607770992
N          13.41258128032586    6.52883601546978    4.49240224233054
C          14.58438344824500    7.21127462433130    4.59483607601071
C          15.49143449121892    7.76034358713683    5.49295976258117
C          16.50848586504994    8.33382388816588    4.71614211610996
N          16.22079806066632    8.13848042054743    3.37798849628749
C          15.05694469407829    7.44754482769258    3.27904279376330
C          14.15641824766804    6.88003569247767    2.38093971050257
C          17.68357911199889    9.01618697322375    5.10856899047895
C          18.09854558988092    9.17794611951801    6.39247036668248
C          19.28239383536700    9.84939839389382    6.77922094698778
C          20.20103528010640   10.54141959440634    6.00025855912766
C          21.25300917688385   11.05151618520384    6.75327623671767
C          21.15218704268572   10.75043614127451    8.12284445654703
S          19.74444273432556    9.84499241484673    8.47724742565377
C          22.27357629578201   11.29701601623668    8.78735108770981
C          23.08522935522080   11.95217741698372    7.84120621231104
C          22.47038557432794   11.82518482340700    6.53608895648906
C          22.92574188843284   12.32352758581855    5.34859770407216
C          22.22994473483120   12.12675498640083    4.13914618897615
N          21.66306857660107   11.96464495272513    3.15463584650111
C          24.11959457885574   13.06710189791459    5.25411056667570
N          25.08807305856685   13.67570326203612    5.16927018565559
C          24.23092574990376   12.51629541984464    8.40693664853511
C          24.30148720764556   12.29476299480597    9.76721890817392
S          22.92078807642902   11.37549100833182   10.36604630148590
C          25.31861569375325   12.70176141146564   10.66720277802171
C          25.39461853563153   12.44554890860088   12.02359936894957
C          26.54504884367035   12.99250096740233   12.59351137773614
C          27.34699734942467   13.66931843788217   11.66667107758151
S          26.69027135947890   13.63521306992980   10.08837580550398
C          28.48667971027440   14.18268698810061   12.34766575993930
C          28.39891479859403   13.82700730263878   13.69945733762488
C          27.18184954116827   13.06837865651483   13.90445428224144
C          26.72083597385936   12.53056945382526   15.07141245111531
C          25.51394910259080   11.80489868659002   15.13962796339824
N          24.53299934507324   11.21348940477728   15.20162149123244
C          27.42029116759101   12.66297300593173   16.28860248872391
N          27.98371511587214   12.76550221938867   17.28251993064472
C          29.49390364625373   14.29714668766800   14.45124719343587
C          30.37141748876364   14.98559299516343   13.67212583078676
S          29.89556700445655   15.08316551134159   12.00618505884204
H          -4.37441438315470   -2.00594500823669    0.19245561438301
H          -2.34930069486760   -2.96606149042905   -1.11957105028750
H           2.37124817136091   -3.28937271201617   -1.15578132303371
H           0.86299342810722   -5.68943146121516   -5.13114883425584
H          -0.03092577662567   -4.31375100932421   -5.79930593023599
H          -0.86378376588506   -5.49010755756134   -4.78573843518693
H          -2.00246778612225    0.92904777639811    3.31980523730762
H          -1.34635219283449    5.69993931866246    4.14512746999105
H          -1.37967073670241    6.10369755302110    2.42264729654726
H           0.16561462943492    5.84177082416782    3.22799906975499
H           2.12092834412190    2.06767380802918    1.31410137776086
H           4.29241210681584    2.36507703711362    1.82372555996162
H           7.33017815928910    1.28088199400228   -1.95256131686817
H           5.04257305311262    0.36834685433620   -1.88779613492062
H           6.00677856233134    2.70504378177447    3.74756675828155
H           7.55309442353293    3.50387754076902    4.03828011325546
H           7.19206005209104    0.81296245122070    2.63261282419031
H           7.76841126827801    1.04951452130487    4.28387251523547
H           8.73892030064498    1.61037749099171    2.91963603485395
H           6.75093546732965    5.50127871436853    2.83321048174515
H           5.20384844701751    4.70069086742201    2.54792097928477
H           7.03283242648105    5.82785605048686    0.37264430821846
H           5.54176656901382    6.56971972620735    0.95756540431913
H           5.48294266250379    5.03321392241212    0.09088470429370
H           9.29111820438352    4.95761874589929    2.75351974424951
H          11.49419023487327    3.84761341465242   -0.74836656214957
H           9.57936411761227    2.54084906243277   -1.57495589912093
H          12.44875893714721    5.38855791709296    0.73352651642489
H          11.27990203831696    5.36464786835514    3.55646208531138
H          12.83951861655368    6.19923686993564    5.24983253503860
H          15.44241887473142    7.76270453493903    6.56275825077090
H          16.80192492798219    8.45202328510381    2.61982276964466
H          14.20531022382131    6.87970736197988    1.31132235092907
H          18.28871581660592    9.41626918091228    4.30584681574352
H          17.50986116836046    8.75563120534819    7.19385626511138
H          20.09576876358629   10.66627333630418    4.93880659722454
H          24.98516651336296   13.05952603047321    7.86606068464644
H          24.64382911536966   11.88667867851250   12.55293458690229
H          29.62850815140403   14.13785785043961   15.50546457885566
H          31.28802466571122   15.45428110428986   13.96909720270122
