152
 SCF done       -246.191376012482          0.000466684319
C          -3.08615339063258    0.59904530565301   -3.48569755935649
C          -2.11012126525723    1.46433838887785   -3.82377117669066
C          -0.98278814937720    1.40132430985662   -2.95180346528850
C           0.19672593384421    2.16482323885773   -2.99397074964905
C           0.41826002728082    3.21865826671521   -3.96557662565040
C           1.57553367518393    3.51790311603592   -4.62387612157767
C           1.45287888113086    4.65163527595688   -5.45669559463453
C           0.22150442811508    5.23690338044284   -5.43975099712696
S          -0.83019592175486    4.36459030495501   -4.37562374793761
C          -0.25460367607005    6.43292032993530   -6.17994420960633
Cl          2.76400316607446    5.23458375000703   -6.41007246741131
C           1.15827482147480    1.87510291162865   -2.03028653312813
C           0.98538804581335    0.89688850811704   -1.02255109694770
C          -0.20618710931067    0.15126186527935   -0.96417154416775
C          -1.15342390120384    0.41642607720124   -1.95131525868055
S          -2.70741387281921   -0.36067777395233   -2.09845519398732
C          -0.47148310516910   -0.82292916306427    0.07588509367203
C          -1.10190463387626   -2.02776600115794   -0.04310271330044
C          -1.25407289123600   -2.69025221352323    1.19445996715136
C          -0.75963325798459   -2.00854763629324    2.26710675587959
S          -0.07355585857123   -0.50730307171955    1.74487319928214
C          -0.76259688861996   -2.39536636151763    3.70078074460448
Cl         -2.00547522922574   -4.23482820396964    1.32203501066234
C           2.12116317403702    0.80893759712446   -0.17534172654197
C           3.11231314038289    1.69132059303067   -0.47706296055156
S           2.68710282487601    2.68498527469246   -1.85866316988697
C           4.39340176976759    1.87402530630330    0.16898336439336
C           5.16581466390448    3.00538635771215   -0.12408774377614
C           6.37670637794337    3.18134966827802    0.49788524394064
C           6.85336248756110    2.22927742744202    1.41305943266415
C           6.10116939916423    1.10006300981447    1.70258540099552
C           4.87931206741829    0.93127786868711    1.08262057818439
C           8.13031989654751    2.68238257127116    1.92117275274378
C           8.43804722917595    3.92014785233019    1.32750148548756
C           7.37843480898352    4.30141766713197    0.31756003442911
C           6.76336664315987    5.67871828572290    0.60416889500906
C           6.12382207647846    5.75109001300194    1.98607914167334
C           7.90506357313531    4.20260138242239   -1.13400330536065
C           9.05860100686067    5.13139307911892   -1.48919127072554
C           9.56257435964191    4.61161219524003    1.70695790940350
C          10.43968107219486    4.05509706071731    2.65088328934432
C          10.13883241655219    2.79872461679892    3.19445059780645
C           8.98824446771986    2.11799201591229    2.85335807424376
C          11.64869903881274    4.72302618111643    3.07351277873252
C          11.99973021733449    5.99868938653435    2.81672731209947
C          13.22916481699579    6.57731331825195    3.25536262101174
C          13.55620615493154    7.86625707028568    3.03469540589518
C          14.78114528089550    8.53121950998657    3.41184427022117
C          15.88734613734549    7.83931211494494    3.92961612985438
C          17.03809392142166    8.52286020602893    4.23744505745574
C          17.09727338615006    9.92094581278945    4.09160073478730
C          16.01088479825633   10.61954701719282    3.58561022555887
C          14.87477962352196    9.91893732246877    3.23681532451509
C          18.38346584255749   10.38245714821580    4.56580911811545
C          19.12260224791681    9.27107574975666    5.00258707994235
C          18.35116339479016    7.98942760992624    4.76589447869100
C          19.12455943561109    7.19768209636266    3.68453987318310
C          18.43064116214174    5.95577764240841    3.14076308929617
C          18.17356598661483    7.17075961049820    6.05228726937835
C          17.51457214044668    7.97879239532681    7.16458217270185
C          20.38653547138038    9.43230383921964    5.51279244968434
C          20.94998220902046   10.71573825255006    5.60063887570564
C          20.19448875051108   11.81383626557554    5.16774682908578
C          18.92318896564205   11.65811384773315    4.65490764677772
C          22.29164010598998   10.83672526465145    6.12066225021897
C          23.03056201924071   11.96014052526943    6.18689579067908
C          24.37136922917249   12.01996771375575    6.68023168361349
C          25.15220522847566   11.04296751756391    7.22655600271186
C          26.45427061788760   11.47473135640779    7.58158092549837
C          27.50302297579531   10.71694402124344    8.13719965646859
C          27.39345289700274    9.29405266198498    8.38968335308614
C          27.89665366143775    8.58869812741387    9.44455097212668
C          27.66266779044911    7.20040074932320    9.33732427769603
C          26.99596384281794    6.82338418212939    8.20920997870211
S          26.62971916802935    8.21722357628410    7.24913905768823
C          26.59205543785305    5.46237513622278    7.77355701112039
Cl         28.18478693244326    6.08707705944835   10.54347087567992
C          28.68569719862818   11.40023931022385    8.41265843745212
C          28.87798614529311   12.77244467416691    8.12909327150270
C          27.83855732314214   13.52516463306777    7.55511112599287
C          26.64387643549162   12.85349925367583    7.31448964789425
S          25.22019269073090   13.55279932294268    6.60105007233262
C          27.98764065576206   14.92207565779039    7.19387706993655
C          27.07604597880446   15.92697379616598    7.33874991884324
C          27.53180109114645   17.15723800453696    6.81602808031270
C          28.77572616363203   17.11043005061155    6.25931891355557
S          29.41838026673526   15.50769935123161    6.38766215212749
C          29.55236568478401   18.19927258951947    5.61401542271581
Cl         26.58075315489059   18.59161321081280    6.88461035604508
C          30.18474136323443   13.20736069983156    8.50057627709795
C          30.94487967910909   12.21717132207651    9.00806601020046
S          30.13106376459271   10.69382037327614    9.08566879987668
H          -4.02864680342572    0.44458985456183   -3.97328998276088
H          -2.17404562010628    2.12597402364010   -4.66732450584994
H           2.47782299591801    2.94002823188315   -4.55108739071443
H           0.55006761960135    6.82454056580815   -6.79729714956926
H          -0.57954119776666    7.20907488378544   -5.48753186364584
H          -1.09988222052583    6.17860076220513   -6.81875306742036
H          -1.42055025233058   -2.45261677377614   -0.97645957300189
H          -1.08235605324757   -3.42966940418949    3.79991511379975
H          -1.44585006122406   -1.76237173470373    4.26746010699801
H           0.23127031645741   -2.28476943515893    4.13126695819397
H           2.18686152588226    0.10925831991209    0.63612032715370
H           4.79004048919956    3.73329676812098   -0.82905237353055
H           6.46344616128320    0.36118682039255    2.40168647044174
H           4.29377148009269    0.05116179961315    1.29782858534448
H           6.01058554103092    5.89374475575211   -0.15727975554434
H           7.54107051928863    6.44024633786460    0.53285394372721
H           5.32158257351640    5.02221761591764    2.07761041224811
H           5.70955831886965    6.74230550920469    2.15679335196323
H           6.86117258851700    5.54737110911411    2.75976007235902
H           7.06579734818812    4.40334689537964   -1.80391059166154
H           8.22257985916692    3.17033467177656   -1.30456671479959
H           8.79407073673775    6.17311099043787   -1.32717906528705
H           9.30762181108845    5.00821116119080   -2.54125557094265
H           9.94292712393016    4.89411575588320   -0.90408889792271
H           9.77910747461283    5.57972537239696    1.28457239050846
H          10.81926817429312    2.36733890220909    3.91531855430181
H           8.75998332787551    1.16403637171219    3.30543640023771
H          12.32346021959729    4.11894824662123    3.66936582814677
H          11.34018486824938    6.64788022545835    2.25695631924925
H          13.90352028226743    5.92018755053675    3.78749329150264
H          12.83392243111049    8.49211557764662    2.52285391711814
H          15.82602504698817    6.77371692761175    4.08195958830946
H          16.05228048920300   11.69220365183588    3.46667140821123
H          14.02418372175497   10.45066124847124    2.83367763898277
H          20.08839987408644    6.90992559071581    4.11108171009182
H          19.32387730598222    7.87821517068063    2.85223240248247
H          18.19358189081802    5.25269720769416    3.93513051484656
H          19.09091513405306    5.45546790552633    2.43516468761492
H          17.51662842823064    6.22059971812497    2.61633288353284
H          19.15283770579432    6.82118682114391    6.38686294153737
H          17.55973899717160    6.29463339961249    5.83855551218143
H          18.11764302574893    8.84825526190619    7.41724255205676
H          17.39967410479631    7.36733584066210    8.05700240127670
H          16.53067093402982    8.32397218192832    6.85395752319065
H          20.96083907220622    8.57984796597079    5.84796190309497
H          20.61115423283909   12.80647362345826    5.23812146762461
H          18.35833217873576   12.51809615729359    4.32666089529734
H          22.73241340206072    9.90997702647348    6.46459544623306
H          22.63271231748893   12.90156990754355    5.83577758003141
H          24.80429988282487   10.03973793876709    7.38291395427463
H          28.38830049672810    9.03437217293079   10.28881222326716
H          26.89121641334325    4.73519460371166    8.52429810105914
H          27.06458640238255    5.20669822797241    6.82541549463308
H          25.51266357099193    5.40675036323418    7.63582905961197
H          26.12599898695253   15.81394252110669    7.82672374872343
H          29.01493966902773   19.13927139506851    5.71191369679603
H          29.70216703454858   17.98795293767121    4.55516104109582
H          30.53294285728351   18.29924654229317    6.07772942068844
H          30.52762026701862   14.21968416733058    8.39570783565803
H          31.95502521069866   12.27685480592779    9.36296295351253
