141
 SCF done       -253.805967521546          0.000509743015
C          -2.63987556172945   -2.44736403093197    5.45278351992601
C          -1.59710499986742   -1.95756971499238    6.15241850431106
C          -0.58913963550257   -1.38412211302588    5.32204621380009
C           0.62176350338546   -0.78043271458394    5.70525764453041
C           1.00915417169673   -0.60386786907930    7.09168107133936
C           2.25275475144092   -0.74495701151831    7.63603333057090
C           2.28434621281173   -0.44010120633478    9.01431673112176
C           1.08539186242021   -0.05504051502167    9.53722872479244
S          -0.12854422908235   -0.07405207886214    8.30228266852034
C           0.75666730273449    0.33457835601696   10.93185304438681
Cl          3.73042903459901   -0.55102858840898    9.94394805703407
C           1.44954521417595   -0.34111610324580    4.67548223438484
C           1.11366570903246   -0.44892740385125    3.30589610288201
C          -0.11329930686409   -1.02140650827559    2.92536332263682
C          -0.92326650804506   -1.49657455290675    3.95179027431095
S          -2.47687789042248   -2.25810106053329    3.74254011576131
C          -0.50421817516235   -1.09236997545550    1.53072849628150
C          -0.39662249810862   -0.11953985227414    0.57988082256848
C          -0.86929500797260   -0.53917956721145   -0.68315310076464
C          -1.33173069594991   -1.82168019839605   -0.71576183620701
S          -1.19470916366795   -2.54152130696240    0.85368278850776
C          -1.88968741772770   -2.58331308705083   -1.86184378610476
Cl         -0.85509119537855    0.49922396180606   -2.05931931299831
C           2.14233352796784    0.05437342967762    2.46673827225346
C           3.21033281027383    0.56429702781940    3.13877829291480
S           2.99282791898239    0.43466201035008    4.87634012979293
C           4.43087546778485    1.13445500848163    2.61199449044932
C           5.34608260026770    1.73912957071383    3.48407305507897
C           6.52214178975519    2.25188602165317    2.99369979367086
C           6.78745923075800    2.21351132749603    1.61368444201514
C           5.88498431506960    1.62484060321320    0.74025818159645
C           4.72049250845836    1.08104120074199    1.24371699417794
C           8.04549635872267    2.88428261461098    1.36638805890981
C           8.55371514609143    3.34509356845541    2.59255588405245
C           7.65703821476720    2.91811029898139    3.73628332628527
C           8.45981084361121    1.90165125004177    4.58305011666572
C           7.68109064455764    1.18487645978914    5.67818122672585
C           7.17993796912782    4.10788285021151    4.58126142758375
C           6.49646010565743    5.17890104066903    3.73884565165797
C           9.73806502223124    4.03764504882971    2.64558967177949
C          10.45062453606651    4.28356824815353    1.46238060816416
C           9.93634258274511    3.80238865452798    0.25013940835898
C           8.74176879444881    3.11488427369361    0.18901657228048
C          11.70672754607618    4.99633290773703    1.44242270212038
C          12.23222009794795    5.71666710390642    2.45104066845696
C          13.49101901004877    6.39163365917398    2.39084437377389
C          14.44404463874776    6.37757442910245    1.41258708901106
C          15.58300807577607    7.16369282653552    1.70634010834512
C          16.74318622874586    7.34088932185779    0.92515160857260
C          16.95908373700682    6.63882994961689   -0.32433517965130
C          17.54148753475937    7.11169040552981   -1.46482634633264
C          17.65147345071380    6.12848320816814   -2.47241492474149
C          17.17338129519564    4.90079674976287   -2.11960190411695
S          16.55623675213833    4.95070541341891   -0.50282803129680
C          17.14094341777479    3.64783722733548   -2.91552372018712
Cl         18.33509697415341    6.46911946856500   -4.01559713781703
C          17.70120798820550    8.21553940139113    1.42656980614974
C          17.57280470772989    8.88426873789606    2.66862363358620
C          16.43572796898336    8.66783332446104    3.47243604476193
C          15.45852583178866    7.82762217322773    2.95309130718017
S          13.96588397661204    7.40605559187993    3.73944652127773
C          16.32083542820873    9.28057567062942    4.78080430968135
C          17.28905771431992    9.40630292579198    5.73498589194460
C          16.82729147606880   10.06464161938139    6.89544610773632
C          15.51973571615646   10.44965584503741    6.84389229629691
S          14.82426414608643    9.98536984390529    5.32755822527313
C          14.71748345414949   11.16316203549915    7.86952282690937
Cl         17.84645964241288   10.34801430582241    8.25612768203713
C          18.67822935894071    9.72846835593456    2.93160889736902
C          19.64173396422363    9.68793207068502    1.96537793027233
S          19.21593379477896    8.60426881492821    0.65504196858847
C          20.87009370432395   10.40247115269809    1.92518268493190
C          21.85381824214186   10.33365399846550    0.96103736593466
C          22.92924517392747   11.17819967313572    1.24843101326597
C          22.75622852284369   11.89494259287588    2.44279373355881
S          21.27714710166931   11.52858000151648    3.21356675094089
C          23.89109340352326   12.72337562113439    2.64426853335253
C          24.78152224062077   12.52772980370673    1.57655204658418
C          24.20857892704032   11.54826656457828    0.66516685452350
C          24.76009091296665   11.07657141495551   -0.48944188816420
C          24.11095033280870   10.11753087678032   -1.29558849885288
N          23.59136234521721    9.33785917759418   -1.95643773418006
C          26.01828335617374   11.50889541134418   -0.95957651172713
N          27.03849982003893   11.84978238438053   -1.35714442834315
C          25.93562898190476   13.30374314303009    1.67826556719991
C          25.92540956206662   14.08810818304430    2.81754780199467
S          24.47364335618455   13.86386311625225    3.77609742389891
C          26.94995435640118   14.98719439723662    3.20569842001238
C          28.12613129496609   15.23826991032414    2.52473351731673
C          28.95466124179244   16.20574465855255    3.18316945739908
S          30.40111435695747   16.45198897285873    2.25604105312381
C          29.77189833855875   15.24942215487092    1.08203262073143
N          28.63520264904710   14.74635610314190    1.36513326546253
C          30.56923883302592   14.91130447074327   -0.11253698043606
C          28.42731922278499   16.68402635723201    4.33894182079121
S          26.89254646634216   15.95724314852734    4.65303232277643
H          -3.52003004323697   -2.92774583197322    5.83293882892004
H          -1.53150527632426   -2.00509262823656    7.22328632109549
H           3.11458292041731   -1.08586586535968    7.09353155501705
H           1.65133475633940    0.27886246587056   11.54700338455046
H          -0.00099363537073   -0.32889620230685   11.34787999383026
H           0.36640519421183    1.35134941026740   10.96526559831050
H          -0.03568512883055    0.87382407975981    0.77344503455800
H          -1.89920775540898   -1.95600687560883   -2.74974248686043
H          -2.90692931776632   -2.90824458286635   -1.64612637518094
H          -1.28986632237898   -3.47071035355115   -2.06166720068268
H           2.07842698090766    0.01581785050449    1.39560178942936
H           5.10194151019015    1.80367372954551    4.53396145354558
H           6.08720129565352    1.59113389019446   -0.31979849627407
H           4.02334222769609    0.60876534484270    0.56957979319541
H           9.29919125403837    2.43660567511004    5.03318483678393
H           8.87461317126190    1.15342237722686    3.90211046418693
H           7.23124864132190    1.88859135205223    6.37334231497042
H           8.35888404477936    0.54489520157082    6.23931174471477
H           6.90048338755604    0.55893908347034    5.25497861577893
H           8.03952836805274    4.54278799299471    5.09566066437538
H           6.48021958318544    3.75100950298190    5.33796830796947
H           7.17857552093542    5.57254129493428    2.98837086324909
H           6.16793827004532    6.00079691925045    4.37096075386677
H           5.62755273472045    4.76772533957370    3.22949095799509
H          10.12852014835221    4.38001378940965    3.59142115076617
H          10.49131524392886    3.98703399560078   -0.65875123302032
H           8.36047856879350    2.75956699794806   -0.75666575533778
H          12.24892382423953    4.94275267248835    0.50767658434703
H          11.69557803016339    5.83066090394522    3.38229104553254
H          14.33501831427479    5.82070480125909    0.50165100946912
H          17.85278195435023    8.12956201706868   -1.60742934948667
H          17.46140609354989    3.85406856522742   -3.93364884566336
H          16.13555443159631    3.22957664042011   -2.93468474096545
H          17.80653595090750    2.90100284409442   -2.48236361037962
H          18.28229096916379    9.00788658054311    5.64109834151185
H          15.30205759467189   11.27602446447322    8.77921452395903
H          13.80751845528378   10.60960328650246    8.09645701613883
H          14.42850510796577   12.15149547486504    7.51221023324023
H          18.75193261749063   10.36325746521119    3.79602759685847
H          21.77639390256761    9.69480443560019    0.09964399200969
H          26.75447419339042   13.32261408645662    0.98276136683320
H          31.54267340955873   14.52125364360682    0.18243077158559
H          30.73568807565117   15.80150269814709   -0.71813685438042
H          30.03916923945131   14.16540394894644   -0.69890415979639
H          28.82501895763868   17.40435747466110    5.02346199641140
