163
 SCF done       -275.677984961534          0.000743741341
C           2.08511230507394   -5.62520953887040   -5.76044306878986
C           3.39737488387606   -5.56280507553817   -5.46099402636863
C           3.78242314900897   -4.30876064912541   -4.90035828647253
C           5.06128829052134   -3.89055163590108   -4.49293200862805
C           6.24355841700032   -4.71840864636119   -4.63567885336434
C           7.27809287442113   -4.85454229952447   -3.75607487252837
C           8.29952626102021   -5.70073261036765   -4.24009658045362
C           8.07208809923347   -6.20921487304561   -5.48460554783396
S           6.54966273207041   -5.64098682988282   -6.08329545530905
C           8.92448562945118   -7.11820486247956   -6.29204331154015
Cl          9.71235514853583   -6.05133687919130   -3.31889771940883
C           5.15175820714106   -2.61290264388304   -3.94795824239863
C           4.04730898347046   -1.73774645783051   -3.81854351556870
C           2.77218467947337   -2.14692289114857   -4.24962548166303
C           2.67625981168454   -3.43776881004172   -4.76610087496820
S           1.21985213495384   -4.17937487969631   -5.37369289414936
C           1.61136564035265   -1.28058366356944   -4.19667371266288
C           0.32536209057616   -1.61814509753783   -3.88780110129496
C          -0.56852775275802   -0.53113731708400   -4.00193755286630
C           0.00786795454126    0.63693044703374   -4.40559078327597
S           1.70654142901384    0.40295608075777   -4.64419834891392
C          -0.62484234380326    1.96061523833184   -4.63499315478261
Cl         -2.24875177057991   -0.68608107699365   -3.65647913635967
C           4.42116492903453   -0.50439769978803   -3.22276209180895
C           5.74744180158365   -0.40252792929877   -2.93705042123433
S           6.61541404763138   -1.85778939443226   -3.39007382332024
C           6.46170457659353    0.69380072423557   -2.32002160431611
C           7.86069765491401    0.73376163896715   -2.38253672495663
C           8.54136369809872    1.76566919929429   -1.78368888238166
C           7.84141593549396    2.75040048069257   -1.06492634059994
C           6.45604629160470    2.72522533491800   -1.00556776931630
C           5.77508639641704    1.70650408212726   -1.64163611438383
C           8.80189190350136    3.63296369232656   -0.43633439185611
C          10.09317049464800    3.20043513525008   -0.77779163384971
C          10.02949000309227    2.02220201164891   -1.72681745895830
C          10.57673226679226    2.50711814756361   -3.09006063411342
C          10.41912462206629    1.53486980556048   -4.25156298477394
C          10.80961065023157    0.80868255685798   -1.20158349099122
C          10.35743616236215    0.38906291369420    0.19246597552704
C          11.19854933451597    3.84952322881550   -0.28431099206329
C          11.03724240152924    4.92727631115789    0.59739627052517
C           9.74369801943442    5.35254689625348    0.91954893082876
C           8.62842938284746    4.72075059410358    0.40653318154403
C          12.21993794247750    5.55793283575566    1.15141551048876
C          12.26425163767580    6.24500618616657    2.30193576707992
C          13.44872944086922    6.83685083776418    2.89192612428527
C          13.45490385622484    7.08765371392617    4.27144970667461
C          14.57614543796721    7.61288100381924    4.86473618331595
C          15.70860541825558    7.93032014051171    4.09597262351405
C          15.70595944442408    7.70975135268898    2.72636951376452
C          14.58279639931023    7.16122490755707    2.13909413589540
C          16.72795359565378    8.46030637439570    4.97704893831346
C          16.22866912673737    8.45704007545614    6.29082887455476
C          14.81558568959799    7.92417942760925    6.32323458453490
C          14.71435586696644    6.65498312394465    7.18970944862755
C          15.66053577078878    5.55075965526872    6.73370457031031
C          13.82749021303840    8.98421485934086    6.84362789227974
C          13.86527661949406   10.27443321218161    6.03352400055591
C          17.00801240639676    8.88945654237862    7.33406455158745
C          18.31409750104984    9.34654278258433    7.09160909739772
C          18.79119717219657    9.35575304445975    5.77376037827014
C          18.01327097552058    8.91709189432798    4.72151931710590
C          19.10633397203378    9.76231715219191    8.22541499689286
C          20.34776075614157   10.28308681923684    8.17929791810060
C          21.16596736177066   10.66555384947768    9.29691456545771
C          20.88002706846219   10.54688224534799   10.65045772732570
F          19.70135659066461   10.03921071152260   11.06335958078644
C          21.76807913129191   10.92463884551115   11.67042065075701
F          21.34210781119063   10.73848639723849   12.93438917559453
C          23.03008275751311   11.45427110511610   11.44749389625486
C          23.35072978536946   11.60466854766630   10.07550703873339
C          22.44508295729739   11.22216735369251    9.04459897567802
N          23.03523491703777   11.49592704704860    7.87177223568442
N          24.19063568949482   12.00133104138114    8.19978963876653
N          24.44598543931025   12.09515721225373    9.47623290375613
C          25.14324541724731   12.42434880481040    7.21978528583527
C          23.95457266703599   11.83195543914038   12.47872639330269
C          25.23375775255446   12.25881512080490   12.26953014394455
C          25.92547464638559   12.59385399541273   13.45596137660809
C          27.23685347547140   13.09462686923750   13.57690745002975
C          28.01783475641868   13.39269507997359   12.39425464271054
C          27.58198700045218   13.95106038482480   11.22621885739781
C          28.60286685628798   14.04902401123937   10.25767123555958
C          29.81832477299282   13.58242788071469   10.66310915846801
S          29.71317183812643   13.00201763341087   12.29208707906312
C          31.09796750134737   13.53174811257787    9.91122537767245
Cl         28.31168035860144   14.69951208530697    8.68729940545732
C          27.70895543577684   13.28384972692233   14.87097958845094
C          26.92328369732633   13.04964577077877   16.02558715478339
C          25.59898458086632   12.59198687668775   15.90233805566547
C          25.13743059233611   12.35951361824565   14.60855598695183
S          23.54851954306403   11.79166104922938   14.18146233925106
C          24.73334798685842   12.37593274531593   17.04573635969983
C          23.83604333296523   11.36547394299368   17.23676324545332
C          23.11714954685653   11.49358953376287   18.44536202010558
C          23.43743109538626   12.59649317424819   19.18080805012885
S          24.67062078643433   13.50505881646450   18.37349341292157
C          22.88355357631801   13.04170814326900   20.48451732651138
Cl         21.93602869520948   10.34098807871861   18.93609940819588
C          27.65896581407127   13.31799473275040   17.21786835162310
C          28.91195758457781   13.75287252567154   16.97829371122073
S          29.29623890252190   13.86514716045690   15.29655404887555
H           1.54400700981816   -6.44738478867451   -6.18601322191570
H           4.07814184243340   -6.37763879647344   -5.62205440875139
H           7.30696115242170   -4.40080069604641   -2.78313318661048
H           9.82025403863190   -7.37278148510006   -5.73104076176517
H           9.21638835102010   -6.64128991929581   -7.22733359482280
H           8.38683310522425   -8.03378962497298   -6.53636953382373
H           0.01983073413631   -2.59318712062196   -3.55756812102275
H          -1.68187914618234    1.90803908309217   -4.38642245035777
H          -0.52176979944379    2.25978651489247   -5.67790615342200
H          -0.15228634832748    2.72504016392696   -4.01911648918100
H           3.71789736704032    0.28124104953156   -3.02147825117891
H           8.38386850168420   -0.06095257210767   -2.89362858883443
H           5.91491610459269    3.48288774290241   -0.45870336151311
H           4.69811865730256    1.67316289429143   -1.58728756295922
H          11.63623446755498    2.73857733466551   -2.95790198560567
H          10.06525174703033    3.43995124939800   -3.34273007724238
H          10.90235749385677    0.58418414454011   -4.04293015863147
H          10.88098077457349    1.95909125917443   -5.14079795444081
H           9.36957815072946    1.35708767541103   -4.46902192149504
H          11.87337742605734    1.05517200609970   -1.18030082054493
H          10.67208029069630   -0.02932390321750   -1.88598145118319
H          10.50210793931759    1.19867711575187    0.90453695803393
H          10.92952958742359   -0.47259351469851    0.52904144820560
H           9.30293079227990    0.12176634107454    0.18750562016034
H          12.19590217510556    3.52208852941138   -0.54279514096793
H           9.61572704612537    6.20478719703423    1.56971170992510
H           7.63782477728497    5.06689024237391    0.66225801219123
H          13.13400528871261    5.38786240800127    0.59714459487890
H          11.36531939190549    6.33336025723485    2.89868309159363
H          12.58012682771748    6.84416945721545    4.85827123775825
H          16.56840683636295    7.96099096469989    2.12657807236185
H          14.57149475236815    6.99704352686984    1.07209753588645
H          13.68625772211354    6.28810482142920    7.15427513837766
H          14.93890222182051    6.91964382005989    8.22508847265745
H          15.43810975023932    5.25203869573036    5.71159154396937
H          15.55726345319201    4.68006371936664    7.37727437704956
H          16.69359473914738    5.88896829143391    6.77503807990594
H          14.06655223889809    9.20359074799619    7.88635405143594
H          12.81884563032434    8.56634903555065    6.81306801171600
H          14.85697762031196   10.72009385310720    6.06764025782846
H          13.15196709431300   10.99028640174600    6.43572107169839
H          13.61175963530132   10.08211897312918    4.99322371320674
H          16.63057155707953    8.88136184107868    8.34688951863527
H          19.79295193587105    9.70318212883432    5.57418094341717
H          18.40315909175735    8.92587230324645    3.71428367559533
H          18.62242839453545    9.62091416672765    9.18080478345782
H          20.83674334228209   10.45236171254906    7.23052378005691
H          25.60703371589622   11.55707173836820    6.74821817059021
H          25.90477050694558   13.01861952087246    7.71902809203332
H          24.63955986776472   13.01249017205058    6.45474307921479
H          25.66123078817122   12.30120775408352   11.28720632662482
H          26.58504662041780   14.31673955999318   11.06709878327624
H          30.96385402061706   13.96756745516930    8.92407646426074
H          31.43708345550808   12.50229106803520    9.79954288994526
H          31.87387681208343   14.08389660855452   10.44018533382092
H          23.70479064913116   10.53847194283659   16.56438930800479
H          22.12173458987579   12.34020663373160   20.81505319481944
H          22.43869804899651   14.03223955368166   20.39499138443179
H          23.66846424925802   13.09359559045249   21.23859231696323
H          27.26280094723897   13.17862186084924   18.20623398569803
H          29.66477957313209   14.01881092415591   17.69416970839532
