161
 SCF done       -268.886981393549          0.000970804413
C           0.41796502672104   -4.32790363177861   -6.27370824325225
C           1.73090447474797   -4.05723190700428   -6.41066583072189
C           2.22926364388478   -3.18663861104223   -5.39645594330345
C           3.53984355762540   -2.70900045794878   -5.22282536522080
C           4.64134344204661   -3.09587257584961   -6.08329424144123
C           5.65863666387221   -2.30972081071241   -6.54124133086802
C           6.60311803040921   -3.02814933132583   -7.30636909068443
C           6.33422161734621   -4.35887760580731   -7.43409012237537
S           4.86795967698896   -4.74616545349845   -6.59819756474117
C           7.10508745143220   -5.40207263103039   -8.15671855639081
Cl          7.97908644289725   -2.26879247000244   -8.01137065721509
C           3.74852166319637   -1.84744870020188   -4.14940572835550
C           2.73312198905735   -1.47311712070368   -3.23770714377147
C           1.42261238957815   -1.95495816735443   -3.40868792592317
C           1.20751544689637   -2.79354229226197   -4.50074841361414
S          -0.31178766475404   -3.53925605723313   -4.91983087958982
C           0.34002968485905   -1.62616850254476   -2.50255249183544
C          -0.96132320510423   -1.36230917815983   -2.81873295223576
C          -1.76646633520140   -1.13392626333603   -1.68164746398405
C          -1.10691581565506   -1.22954032114314   -0.49193832486262
S           0.56093058990268   -1.60048050269157   -0.77241228565773
C          -1.63636239738245   -1.05836297965062    0.88467870973623
Cl         -3.44419016621169   -0.76533894523915   -1.80588450722988
C           3.22736148525378   -0.60500771111057   -2.22853306853185
C           4.55664820299898   -0.33424618654785   -2.32957047843486
S           5.27376578723098   -1.13425213645110   -3.71472651192803
C           5.37634675282281    0.49422419372695   -1.47177074559161
C           6.61878396386695    0.95245805166469   -1.92707161849258
C           7.39175360217746    1.75090231879712   -1.11809311883184
C           6.96154599816073    2.04961311213493    0.18560860745591
C           5.73744672386304    1.59153015450551    0.65116615160975
C           4.94672442343610    0.82797431468706   -0.18273397962411
C           7.98511990381768    2.83328772541504    0.84025469780790
C           9.04229203176521    3.03808312469783   -0.06341467460028
C           8.75776842233611    2.35117074968791   -1.38486918855656
C           8.73378196656434    3.42768767478825   -2.48992209547440
C           8.40575476062853    2.94196422408086   -3.89578385681054
C           9.73253733605245    1.18732661983376   -1.66441470247100
C          11.19136330634977    1.57132238831099   -1.87379868578721
C          10.10544526033060    3.83128196938854    0.29758943303774
C          10.17237789218943    4.36911423390417    1.59242262842353
C           9.12858793905204    4.11696219951616    2.49162657434280
C           8.03112420959903    3.36975233464665    2.11932997269912
C          11.30584448393311    5.19635615844841    1.93890605671545
C          11.68980451448725    5.51570462271137    3.18729962188381
C          12.78403676228817    6.38598401727423    3.53445294634125
C          13.48393630604816    7.18322524621964    2.68223217905903
C          14.50885760689604    8.04886342568191    3.16914856568054
C          15.24055279287877    8.87223351071128    2.32920618142884
C          16.22963914153530    9.73391710232140    2.82499461640425
N          17.02750023434591   10.44662976433553    3.24599032271190
C          15.02693307815575    8.88428775459451    0.94332406409528
N          14.83799842441224    8.88209406428743   -0.19076783375129
C          14.72782970917195    8.01602058032196    4.58339800521152
C          13.99868263476651    7.19012784910992    5.37317104284813
O          13.04190359804831    6.37509343721433    4.86926032994830
C          14.17098831083327    7.06940059595945    6.81965103166949
C          14.57277412850228    8.17180703978697    7.58230405372356
C          14.71779179895120    8.02452214009121    8.94066452895370
C          14.49268556392787    6.78056464389145    9.55533947094736
C          14.09246505330027    5.68679505595525    8.80320865853897
C          13.92181147781279    5.84324664051412    7.44130883225605
C          14.72572252061672    6.92243132858296   10.97775222855775
C          15.06441265472855    8.26002750104509   11.24395649388832
C          15.09336798779195    9.06689460215216    9.96672826211860
C          14.06069710258673   10.20961323759842    9.99957806808819
C          12.64208877306034    9.71884431423320   10.26296151893228
C          16.49492679270648    9.64564658153188    9.69758752032470
C          17.57774432293710    8.57478579481345    9.64483813287821
C          15.31435611569663    8.67836227635989   12.52809364713714
C          15.24719317380862    7.75436513879423   13.58053572241215
C          14.94500091682340    6.41675900465731   13.29283968869422
C          14.67225588643736    5.99494195112785   12.00730880507212
C          15.47827344591618    8.13073809111153   14.95793890998933
C          15.40442473624310    9.37834127233484   15.45434494321012
C          15.61506508389250    9.71461961190884   16.82998615585699
C          16.12170403027359    8.95740916822163   17.84489033910721
C          16.16852234305834    9.62640083936258   19.09369143999178
C          16.65146357561631    9.13568433655771   20.32139882695890
C          17.28012413866853    7.83211441638080   20.40547858729883
C          18.18901938744375    7.28805488264608   19.54460642989476
C          18.59261251056487    5.99042311122720   19.92822048196821
C          18.00182206717988    5.52899112159003   21.06760234831023
S          16.92039876756733    6.72463407130121   21.70121696212809
C          18.18712868627744    4.22349057528402   21.75030265895864
Cl         19.73904382125415    5.07971559634514   19.01807351195422
C          16.51155781361892    9.97143450283549   21.42425023248621
C          15.96850581644347   11.27596558575329   21.34692244817036
C          15.52936769502257   11.78599860919314   20.11211538286739
C          15.63101888575127   10.93419799349240   19.01570850333780
S          15.16165769356232   11.31639058107395   17.38394165277282
C          14.99941322392984   13.12793675747042   19.96224494011242
C          13.94399010717743   13.52901335259771   19.19575735195894
C          13.73071040863377   14.92394467350466   19.24627219594652
C          14.61445651141830   15.60416660441948   20.03095163723730
S          15.74226576758637   14.49910875228063   20.74207248405125
C          14.68739686938644   17.06102560409543   20.30827053677208
Cl         12.45113604686736   15.68733163286725   18.38188749768459
C          15.93769355943116   11.90382185837613   22.62708628652092
C          16.45120241175832   11.13105183912996   23.60495515703112
S          17.00433774281547    9.58991982107092   23.05185700727629
H          -0.19606397009444   -4.94668887928065   -6.89816351029815
H           2.33445781373582   -4.45190175523189   -7.20639407535233
H           5.72482032834267   -1.25079796626545   -6.37518565407198
H           7.99229972719747   -4.95827235782399   -8.60146961504141
H           6.50072349284186   -5.85039823218008   -8.94484014948904
H           7.40947187467991   -6.19599712021523   -7.47539412029958
H          -1.33657289109374   -1.29644460668416   -3.82271653650284
H          -2.68835106104462   -0.78799285527154    0.83937254395967
H          -1.09123382857033   -0.27663074383974    1.41254194486177
H          -1.53340641197243   -1.98202629751211    1.45380992356723
H           2.60044540113708   -0.17793706894555   -1.46887025686688
H           6.94810798334509    0.66264089549187   -2.91326624202905
H           5.40978400532109    1.82087475809540    1.65398560553748
H           3.99834241808557    0.45658222214445    0.17299883543809
H           9.70856814359943    3.91787697857015   -2.50344440194931
H           7.99739054356727    4.18124447401930   -2.19691402638575
H           9.08943492559045    2.16103308130447   -4.21727472794626
H           8.49540575842913    3.77431862478962   -4.59096354231435
H           7.38802245652542    2.56722502429347   -3.95340486115342
H           9.37389656703468    0.65268242188259   -2.54525392363728
H           9.66802869594730    0.49632159088528   -0.81917894473186
H          11.30204569786329    2.28951911159426   -2.68168302918095
H          11.76175872924086    0.68201656003527   -2.13415821455806
H          11.61945928624336    1.98887222280877   -0.96679676619503
H          10.90147967729123    4.05181595229066   -0.39767073420788
H           9.16291894222981    4.54766291934549    3.48022187237233
H           7.21633375218836    3.21210117655172    2.80996540468830
H          11.88421916969160    5.55933992585293    1.09943528017522
H          11.17454084793789    5.10438207381338    4.04383689663507
H          13.25851329140448    7.18306004388167    1.62888419241455
H          15.49814759059593    8.63760636563504    5.00906353170329
H          14.73530992600471    9.12734632510676    7.10759884306602
H          13.91141163039002    4.73055994577874    9.27019104827070
H          13.60831017678522    5.00545510727516    6.83690915880170
H          14.09110993570804   10.73582339525354    9.04335431538187
H          14.34921530642800   10.91763007446680   10.77897550927207
H          12.32325935235408    9.02710874712103    9.48622388436951
H          11.95275831663501   10.55982541520885   10.27850644116245
H          12.58375929925447    9.20801129589628   11.22162067386721
H          16.73324479172430   10.36271925489458   10.48571654172085
H          16.47377118607097   10.18667446677634    8.74946655137929
H          17.63856210475917    8.04144090182490   10.59105364027975
H          18.54376298615591    9.03169741906945    9.44404997596294
H          17.36860794554542    7.85406568011662    8.85732176840602
H          15.58088378358019    9.70483408936101   12.72815554011065
H          14.90834709271238    5.70601686126902   14.10611593341669
H          14.42698578325401    4.96221989887376   11.80925328590252
H          15.68175760605044    7.31088761531416   15.63403768383250
H          15.13392766123543   10.20644087608234   14.81414845673242
H          16.44569992364189    7.94187228276218   17.71584826218422
H          18.59275938636179    7.80241042028253   18.69207019926657
H          18.87659935480190    3.60592868677673   21.17998877756606
H          17.23608563934098    3.70056246087233   21.84395001274356
H          18.58925636849827    4.36950235108806   22.75241636810786
H          13.31378667072775   12.86118163815448   18.63882672150872
H          13.87905417358183   17.57205840716304   19.79124176305854
H          15.63869004001440   17.46994691256751   19.96882773791907
H          14.60238238134210   17.25349560287113   21.37729555682401
H          15.53853329102848   12.88569084039700   22.80010592012838
H          16.54260773827848   11.36404900550998   24.64771006984612
