116
 SCF done       -233.007685724251          0.000865180213
C          -4.33784658942549   -0.46072310106147    3.17804216640545
C          -5.37198022214870   -1.30651534568116    2.85929327737574
N          -6.72018162673031   -0.86779296538189    2.99386781230042
O          -6.89823159374385    0.19124185378736    3.56333487377752
O          -7.60758083211249   -1.55727842730382    2.53546462408342
C          -4.94745964925230   -2.59272577649241    2.41086723108090
C          -5.86072484862045   -3.72060924085878    2.08083191506880
C          -3.57374230431652   -2.66867699193018    2.38846098370691
S          -2.82664512075943   -1.18515937971771    2.93239679934440
C          -2.73046546799126   -3.76127302513685    1.99649570278147
C          -2.98096926900618   -4.75875288189722    1.10275916711797
C          -1.90831010577003   -5.67636981659892    0.96099994419535
C          -1.84365579358003   -6.80739738838615    0.12329852559470
C          -2.91655944140160   -7.11771375977941   -0.80102020572902
C          -3.60064197103587   -6.25924866576146   -1.61225581157412
C          -4.59534544198256   -6.90834313992670   -2.37630384538153
C          -4.68802908906757   -8.25170900290690   -2.15694994529065
S          -3.51236367521933   -8.74479500596098   -0.98530716455502
C          -5.61597182598267   -9.23444132830071   -2.77076632775182
Cl         -5.60089885901213   -6.05572879795289   -3.48621493152108
C          -0.70716012217804   -7.59824150078122    0.23699129298109
C           0.37539022747994   -7.28547462477011    1.09565483644164
C           0.34390813903464   -6.11152786113067    1.87462767055339
C          -0.82101369892195   -5.35508522487018    1.80809694665851
S          -1.13395157018375   -3.89952996568165    2.70856220376873
C           1.48451706281683   -5.71689473587950    2.67494745461484
C           2.80384504317097   -5.76957779405821    2.32554715223412
C           3.65656099491895   -5.29155029923931    3.34365433727739
C           3.00994793728541   -4.87855069605423    4.47236845280528
S           1.29977318760555   -5.06944026706490    4.28165487229107
C           3.58637615513499   -4.33969033075506    5.72937371312284
Cl          5.36787104731005   -5.23719480843476    3.15673982113177
C           1.38516001258543   -8.27687790292573    1.05724253304693
C           1.12242441404240   -9.29042823697701    0.17937494301137
S          -0.40372755704716   -9.06515955898193   -0.65028683675079
C           1.91986483435397  -10.44184338532939   -0.08002949131865
C           3.03453105181714  -10.86428901241399    0.61773270306708
C           3.55818225832996  -12.04877666719131    0.09572171148547
C           2.84016266507583  -12.52123421404895   -1.01344024312574
S           1.51612055798665  -11.51886599847550   -1.40488960640870
C           3.44541719591576  -13.72504494068568   -1.46351139103300
C           4.53528762885593  -14.01828672449430   -0.62994451702381
C           4.64613157954544  -12.97366382527255    0.37587601646159
C           5.56991483680562  -12.88096835132064    1.37485620380601
C           5.57235578896950  -11.80979840435922    2.29297553091749
N           5.57431083550493  -10.93951827942995    3.03996831289980
C           6.57946393264181  -13.84905434453698    1.55991343341829
N           7.40139595699313  -14.63231775211181    1.71879329261004
C           5.19087415104218  -15.19898315834852   -0.98891362045612
C           4.61436123124011  -15.79375142408447   -2.09157441550616
S           3.23511768135279  -14.88754082532527   -2.69532667680137
C           5.00407092829358  -17.00147613777233   -2.73363293391951
C           4.50884170962147  -17.52051173980290   -3.89547578034775
C           5.09599075397547  -18.75388147914598   -4.26260810804686
C           4.84589528049043  -19.52337255346630   -5.41707140128344
C           3.85996472382305  -19.15274668492585   -6.41145676140426
C           3.94696217660938  -19.30070208154241   -7.76631449586779
C           2.77808883324939  -18.88386924227706   -8.43929752774609
C           1.78546440713440  -18.42944364730061   -7.62149846700505
S           2.30098315325156  -18.50624937336985   -5.97067284705329
C           0.43756990160943  -17.92243962524240   -7.98177181605854
Cl          2.63474302733857  -18.94976008321325  -10.15395630042007
C           5.59542218716545  -20.68816776929734   -5.55538932047998
C           6.55256800316105  -21.11537433073689   -4.60452881229611
C           6.83066248567713  -20.32753434324125   -3.46813899664251
C           6.07785463388371  -19.16717038907982   -3.32630612415897
S           6.24108034612949  -18.01730370149236   -2.02719654345175
C           7.85827046042180  -20.71670239297818   -2.52690738743350
C           9.06880461824672  -21.29516292529511   -2.79072963128111
C           9.81743090406579  -21.54060323679154   -1.61986630320654
C           9.19906091715831  -21.16497613358626   -0.46161741255744
S           7.65237131146782  -20.47350512489610   -0.81165993228506
C           9.68766866729353  -21.28282552805217    0.93479740404259
Cl         11.38048197835944  -22.25888456853041   -1.66554001092680
C           7.10193122127215  -22.37959776290090   -4.92926708476835
C           6.64144321127798  -22.89093445645972   -6.10448812471795
S           5.44549154632348  -21.83963771364377   -6.85108503872848
C           6.94405204418560  -24.13521248288531   -6.74878430851878
C           8.14317156787121  -24.81458069028835   -6.93436103668902
N           9.41154778029423  -24.31229935939689   -6.54965449006855
O           9.46604440288981  -23.45985914300892   -5.68126939485729
O          10.38945652261253  -24.74766221785636   -7.12573596072700
C           7.99796210600548  -26.03296104532894   -7.67396931255942
C           9.09646141963671  -26.98338555545335   -7.99947830952592
C           6.70516353627864  -26.23823370988883   -8.03213286915202
S           5.64954879015836  -24.98113547275266   -7.52344157903141
H          -4.42875109618980    0.54777419281007    3.53072786463615
H          -6.77031079228317   -3.65705164044321    2.67211875594960
H          -5.36957020915517   -4.67233571225053    2.26820222001989
H          -6.15645285629142   -3.67552989093192    1.03280123077107
H          -3.89295026824653   -4.83993258871315    0.54416782793220
H          -3.38034600920449   -5.21159895416986   -1.70282142332926
H          -6.26225401380717   -8.73174977979755   -3.48583330906654
H          -6.23345450573332   -9.70761778101514   -2.00786818223839
H          -5.05950934158502  -10.01757056489522   -3.28437312283301
H           3.15919952268059   -6.09229749506502    1.36446147342072
H           3.43446715105271   -5.03900551959720    6.55162565072700
H           3.10975797258187   -3.39805780735774    5.99727538744797
H           4.65364821791922   -4.17658544442331    5.60208322487132
H           2.26234695535022   -8.24796586409888    1.67551211027831
H           3.43059182005815  -10.33990206768229    1.46719146150498
H           6.04532630573640  -15.61580172640261   -0.48675055726522
H           3.75484331480932  -17.01752664937445   -4.47245458459974
H           4.82060886228901  -19.65534291172014   -8.28042361553696
H           0.33632684961468  -17.89200412104311   -9.06370399110139
H           0.28418938010850  -16.92103773163070   -7.58136796063280
H          -0.33843652568488  -18.56934194536013   -7.57295838732491
H           9.43762036958872  -21.51464282726485   -3.77616710680688
H           8.99945386957704  -21.87880743395296    1.53322409064607
H           9.76736058203109  -20.29937389699572    1.39679290329978
H          10.66557785520435  -21.75745866412943    0.94034606064537
H           7.78179257062778  -22.90477640468309   -4.28903988678895
H           9.67770527191920  -27.21866745546314   -7.11005005037672
H           9.77925215981453  -26.53917421782736   -8.72149544446146
H           8.68359251359600  -27.89985449540269   -8.41297684127244
H           6.30613878411760  -27.06839659832246   -8.57965020718195
