164
 SCF done       -320.235566314131          0.000463935064
C          -0.64877863760867   -6.43936020851120    0.62640470149060
C          -0.16461795848232   -5.63639471074571    1.59466991927402
C           0.95874736374076   -4.86679819457735    1.16968986665715
C           1.73523524230126   -3.97344514633059    1.92929328671493
C           1.36665932710213   -3.62914408101843    3.28882545602771
C           0.12170838527055   -3.34082134206939    3.76800014644451
C           0.12658736161104   -3.03937938342251    5.14753289810908
C           1.35682516026395   -3.09784157537057    5.73357681254523
S           2.55462268485249   -3.52707108119246    4.55849787357999
C           1.72701867074146   -2.84815441200765    7.14962868476003
Cl         -1.31321877705732   -2.63212628850606    6.00274250622423
C           2.85317639865524   -3.43365937341754    1.30335807155207
C           3.19777487864849   -3.70732371777468   -0.04371861781298
C           2.40883718503546   -4.58543106880139   -0.81234173645607
C           1.30308899644806   -5.14385007323282   -0.17369937121051
S           0.21306356039588   -6.31503686937182   -0.86714592794732
C           2.72592023072306   -4.92622199409834   -2.18415445428004
C           1.85703939697680   -5.14528875892907   -3.21489386929845
C           2.50762464624871   -5.51819170753827   -4.41082362845575
C           3.86576428408935   -5.60142913596080   -4.31499151226828
S           4.36733619793925   -5.20243645782053   -2.70713880142872
C           4.85483601054461   -5.97145642398165   -5.35872111259951
Cl          1.64279791997576   -5.83703972854390   -5.86558593250792
C           4.34208534707985   -2.97770265733961   -0.44868026667655
C           4.87530701484590   -2.20011204803055    0.53761492798774
S           3.97162242510948   -2.31436999920403    2.02964028364060
C           6.03439702582700   -1.37117411593442    0.44714766197020
C           6.77773153617316   -1.11337042605578   -0.66848768683846
C           7.88162175461306   -0.26033445569584   -0.43228268099614
C           8.82980573633177    0.21217638921293   -1.36273316254778
C           8.73689062360742   -0.06928126880559   -2.78112455595405
C           9.75252885012983   -0.31978333378216   -3.65889126263829
C           9.30121723515640   -0.48882208559322   -4.98588517108043
C           7.95236219313928   -0.36035809798498   -5.14540170828613
S           7.20669015203170   -0.03082223897955   -3.61871118517873
C           7.14803534543293   -0.45686542461789   -6.38964877277651
Cl         10.37707387987731   -0.83107785148390   -6.28564365732405
C           9.86318279174701    0.99040485927135   -0.85111752374859
C           9.96937922478451    1.34241746748312    0.51713734223470
C           8.99057593586362    0.91461939647502    1.43603468103233
C           7.98190455443955    0.10071400046968    0.93457452310561
S           6.67266507521761   -0.57175200791042    1.86425732020567
C           9.04364287545913    1.32144689553397    2.82569126518194
C           9.34429731961551    2.55467052458256    3.32854132206092
C           9.31261388572304    2.58909177346341    4.73954473539197
C           8.99705753846261    1.39859894561560    5.32632499970452
S           8.71769385491123    0.19447859263386    4.11378900356706
C           8.88106156959025    1.07321368302805    6.77022101867217
Cl          9.64940237764925    4.02590226517632    5.62935641045536
C          11.12781705138806    2.11339476496898    0.77665287369057
C          11.86729610329737    2.38509499358518   -0.33808063154997
S          11.16536111596792    1.68183888915850   -1.78177974531939
C          13.08268495503700    3.11848776105168   -0.42132162461327
C          13.82608811152103    3.39376892013907   -1.54989242177058
C          14.97645955726034    4.12893345768210   -1.25212787311008
C          15.10371982350283    4.41304647489145    0.11602822320242
S          13.81045747805016    3.78260019933518    1.03518584308182
C          16.30363446019466    5.14531554078300    0.31896467508431
C          16.93180690090465    5.32333944420653   -0.92330270015118
C          16.11757142159736    4.69563381683877   -1.95291674351838
C          16.37383966578107    4.65039464436105   -3.29174771754985
C          15.50949804778026    4.00834351188607   -4.20324158243107
N          14.80899933835332    3.48787360248221   -4.94703214055366
C          17.52144414269792    5.24792817544687   -3.85381348225734
N          18.45306552672718    5.73432382928990   -4.31256044338576
C          18.13667831815627    6.02192766034348   -0.82862661000952
C          18.42762590349676    6.37484205927257    0.47514228639819
S          17.19182972135629    5.84026427995084    1.60029390366781
C          19.57574158816197    7.07149082976677    0.94748746616144
C          20.62984466470806    7.53647095742048    0.21181402787995
C          21.62689271868178    8.17277268637212    0.98903303084583
C          22.83955576328486    8.73999649466417    0.54689529585004
C          23.25424055894143    8.63785324414788   -0.83723238191863
C          23.16570125305729    7.55266498139828   -1.66162036958203
C          23.67844890374350    7.80556525813479   -2.95239894011472
C          24.15307868745831    9.07245545832607   -3.13179803944345
S          23.97867409894112    9.98538618019615   -1.67124968888984
C          24.75259883693996    9.67900608872802   -4.34660535845600
Cl         23.69579709723747    6.60174065345628   -4.18424424524235
C          23.61356590043546    9.37842887629283    1.50937532504638
C          23.26243142548931    9.42501779997879    2.88084263895079
C          22.07866421087609    8.80697527493110    3.33305315413179
C          21.27942320404179    8.21745446287322    2.36225411208772
S          19.76216895336389    7.41507005794496    2.65508603487370
C          21.73527546641406    8.79762401869992    4.74087930228551
C          22.56486444619020    8.59845227744708    5.80688304544429
C          21.89316055631810    8.68928867168757    7.04553959613314
C          20.55893975989548    8.95541906970689    6.94559244139433
S          20.10412888462159    9.09185816966220    5.28002700671586
C          19.55715536347541    9.12129774180035    8.02856976876068
Cl         22.71209341086863    8.48802994284518    8.54828210468499
C          24.21078415802943   10.14780881115348    3.64237085421268
C          25.26648339800226   10.60728735001814    2.90893300473765
S          25.13185946458435   10.18110627791893    1.21915981149305
C          26.38501607383993   11.35090007029445    3.39483489548223
C          26.71823274385236   11.56417778080532    4.69988409418884
C          27.88619334486188   12.34770852257638    4.86856222777222
C          28.48009715920253   12.76037157994797    6.07626995229136
C          27.86012097437368   12.44464119453623    7.34753497079318
C          26.53331353461597   12.49816904178283    7.66599250147013
C          26.27191535068352   12.07448328580130    8.98699766056373
C          27.37980114889449   11.69525351256655    9.68694415715253
S          28.79386205698967   11.87226286874533    8.70234622557511
C          27.47371960292262   11.19834398426778   11.08283912356402
Cl         24.67624275314032   12.03212910084314    9.63662811408774
C          29.66712021896157   13.47678460013138    5.96941539387819
C          30.24902414178386   13.83603235273599    4.72973306792688
C          29.63568472922363   13.45524934799523    3.52207162232591
C          28.47017827347941   12.70011237230679    3.62825284742937
S          27.52233381262250   12.09744242518722    2.29532882536459
C          30.15984331118019   13.82635105757080    2.22192222526847
C          30.18992819523321   13.07032525557679    1.08563333179288
C          30.71835560942461   13.76837443033785   -0.02201139701493
C          31.08436512068578   15.05546936925727    0.24138365076476
S          30.78021807470869   15.42499483456968    1.90533968522390
C          31.66487435576718   16.06740606505693   -0.67697971654722
Cl         30.88026987816602   13.03766539934610   -1.57291496401712
C          31.46138478202869   14.56321735155647    4.91730646708606
C          31.76069828255696   14.76285753277732    6.21659089644599
S          30.60532455650472   14.08239303706686    7.30656242931567
H          -1.47805175606596   -7.11687580712191    0.68420846548412
H          -0.56267540840923   -5.60105771360918    2.59159826553694
H          -0.76310429237727   -3.30119275824203    3.15989856583974
H           0.83770318140188   -2.59784654170596    7.72266044214145
H           2.43731206197403   -2.02499825687931    7.21939849163889
H           2.19298779248465   -3.73094698569685    7.58606256602893
H           0.79343820256922   -5.01446105618508   -3.14610292744079
H           4.36864154324009   -5.99859156701911   -6.33083281565679
H           5.27970253491123   -6.95443284487883   -5.15347563457455
H           5.67226082253079   -5.25271437012801   -5.38580306994814
H           4.75546103582039   -3.02158040690485   -1.43768133528056
H           6.54571267187418   -1.53180919167882   -1.62886863489505
H          10.78422560405859   -0.41933038853268   -3.37802955631389
H           7.75083090032148   -0.89403752643728   -7.18194197213602
H           6.81787338428871    0.53195375405799   -6.70978069025210
H           6.26301258525724   -1.07011962371543   -6.22959025219400
H           9.53738767284723    3.42134934588417    2.72384090661585
H           9.08605206085354    1.96042537236476    7.36411409446275
H           9.58848176313715    0.29161008927852    7.04545375350405
H           7.87888982645497    0.71435573569249    7.00186586361815
H          11.42145397921307    2.43611159905103    1.75904627097450
H          13.53233694351269    3.06662340185815   -2.53110022899495
H          18.77340821843761    6.26165356086348   -1.65954275748399
H          20.68293219083951    7.45008531686245   -0.85689578618309
H          22.79428349167002    6.59218355645774   -1.35553946812980
H          24.76343328689254    8.94998612527864   -5.15291272284844
H          25.77350845682059   10.00367670985232   -4.14773605110238
H          24.18010768106896   10.55004134711469   -4.66357846646440
H          23.60668266920457    8.35060084516678    5.72124805139931
H          20.03780518369432    8.99476690019376    8.99545748205882
H          18.76038971383387    8.38490612276567    7.92908981006999
H          19.10513655611553   10.11174448702037    7.98501333481143
H          24.09417222757003   10.35012209571534    4.69000517285137
H          26.16833891332035   11.14419739808679    5.52042385408129
H          25.77044391398792   12.86665010653596    7.00529616777377
H          26.47577742825865   11.08065099297751   11.49798638285394
H          28.03285377882006   11.89939979456894   11.70221544260872
H          27.98798545245464   10.23879570444597   11.11505183675033
H          29.88332771800696   12.04236902375872    1.03475290325711
H          32.61651625276610   16.43363773906890   -0.29352169679475
H          30.99508759841563   16.92070085339282   -0.78162612544313
H          31.82442363180185   15.62274006890022   -1.65611193802139
H          32.08059062177313   14.90843544570527    4.11077251753634
H          32.61073875058836   15.27381446259313    6.62439699283352
