182
 SCF done       -351.341841724019          0.000577674860
C          -2.85328125422018   -1.86499773209275   -0.58066677074673
C          -1.99118198598301   -1.86277707519867    0.45575948020681
C          -0.69899479866467   -1.37206183498115    0.10478854748183
C           0.43773126000603   -1.24095213348139    0.92332847797743
C           0.46451601182186   -1.67499961639970    2.30666553102197
C           1.07360599466506   -1.06376371368212    3.36437660688119
C           0.94855313961195   -1.79585505266572    4.56526645468054
C           0.26308511711858   -2.96877315816627    4.44481977026046
S          -0.25646452018196   -3.18179920783990    2.80703574143321
C          -0.04854294816502   -3.97910097000655    5.48717096680274
Cl          1.61364459881368   -1.23739348317495    6.05238994041227
C           1.56630441705911   -0.67754565607938    0.33344909302891
C           1.61307662193665   -0.27823761147657   -1.02376366938634
C           0.49197940186697   -0.45797316480379   -1.85614827459637
C          -0.64887597215492   -0.97777858608788   -1.25397218643875
S          -2.16969677299836   -1.27004812255679   -2.05203006694971
C           0.55822835704709   -0.13043040324694   -3.26622899325985
C           1.58423947269645   -0.37914644938137   -4.13270757860392
C           1.32586946505235    0.09769012877769   -5.43608799229221
C           0.11578409683408    0.71067561186775   -5.58210820967352
S          -0.74249382948240    0.69710456266327   -4.07754921222009
C          -0.47822366175202    1.32022453624527   -6.79873606354835
Cl          2.46294250166021   -0.07935099549036   -6.71942346952468
C           2.86591596759257    0.28688039645563   -1.36579931056065
C           3.76652937396795    0.28489095140041   -0.34140483208710
S           3.09742469501659   -0.40501677540465    1.12035283350415
C           5.11060851744615    0.76629996118904   -0.38477283716395
C           5.70467467186695    1.43850748469912   -1.41315072209180
C           7.06315228621221    1.75683159764880   -1.17634683131922
C           7.93908244212318    2.47418958448054   -2.01588630316890
C           7.52835667446500    2.87732767012337   -3.34533593319815
C           6.80369359581426    2.15386870885166   -4.24920686710331
C           6.56572157177116    2.85925239151653   -5.44841545429284
C           7.09988957360624    4.11437761513925   -5.47920575656472
S           7.92638628564703    4.44477174458661   -3.99332217569889
C           7.03777636794734    5.12669941644065   -6.56342131053569
Cl          5.66596510653871    2.17510675893500   -6.74973530535759
C           9.19928613805792    2.75123926425833   -1.50119234133777
C           9.63559764575349    2.30960222569576   -0.22664221900887
C           8.76610616250104    1.57618684713970    0.60500786234820
C           7.49485304769371    1.31838829473908    0.09870839315133
S           6.21307309333794    0.49547023909035    0.94541302106230
C           9.13953776800612    1.13382861182099    1.93274805809976
C           8.79201948277831   -0.03081144994867    2.55588312207336
C           9.27353606585059   -0.10692091345818    3.88042781971729
C           9.97466191200158    0.98852040891522    4.29194301500154
S          10.06203628551437    2.14831789280773    3.01049372150801
C          10.61853230299688    1.24573249931429    5.60509255341216
Cl          8.98749805250515   -1.47710618469828    4.88309156510380
C          10.98366323026939    2.66991647570385    0.01722074572666
C          11.55301175156643    3.38038425395613   -0.99676342497784
S          10.45111584982610    3.62936174811847   -2.33414164173399
C          12.86980082130698    3.92248256473089   -1.04784736731062
C          13.37960643301255    4.77102325947823   -1.98479804389110
C          14.71581765368472    5.16416863151254   -1.72923890871309
C          15.52748283943877    6.02653205151347   -2.49303419117152
C          14.99722923433959    6.71976301042900   -3.64941417404541
C          13.77162101538097    7.30560404339231   -3.78823037440971
C          13.58610193813677    7.88346433754183   -5.06274295185929
C          14.65057728683558    7.74847554427535   -5.90516867318364
S          15.92943176524126    6.89209420971168   -5.11158451410523
C          14.79982082066322    8.22783083107570   -7.30244963596086
Cl         12.12572736172751    8.68556478959726   -5.50109541251929
C          16.84045512733800    6.18370950079291   -2.06457140548906
C          17.36545539367616    5.54002770651512   -0.91711675957190
C          16.55072923555005    4.68504902443384   -0.14827970823738
C          15.23324836910738    4.54089435741222   -0.56687626733300
S          14.03272325068340    3.54026955695701    0.20386808422723
C          17.08351583952970    3.98738103791789    1.00449674488936
C          18.30005518062537    3.37962937156519    1.12661697310133
C          18.49351267178062    2.80074212276913    2.39952552644258
C          17.44437613744624    2.95716612628658    3.25710691820041
S          16.16963834577913    3.83561830960842    2.48011187774959
C          17.30775758550192    2.48384055191210    4.65780052325752
Cl         19.94463960078120    1.97186433768446    2.81746619712493
C          18.70659221123100    5.92050766919659   -0.66892179409938
C          19.20314004249630    6.80384587932480   -1.58050971558841
S          18.02611533463956    7.22285649226060   -2.80708152022001
C          20.51142508848839    7.36776603463165   -1.61214090821960
C          20.98765233738132    8.33429060714628   -2.44659208948380
C          22.34332632415935    8.67154844156979   -2.21015284019105
C          23.12512545558710    9.64199112744791   -2.86788693376929
C          22.54293507293960   10.51868943473640   -3.86326317666329
C          21.32055624943219   11.12693767399204   -3.83304517389832
C          21.07434055048038   11.91035824137567   -4.98108702102129
C          22.08861870260439   11.91024713893593   -5.89337706364529
S          23.39493059613177   10.92458815879964   -5.32798550835998
C          22.16562274044031   12.60793102009012   -7.20169046781111
Cl         19.60657940296370   12.78718708974468   -5.19532424468219
C          24.46447001813164    9.71383582726687   -2.50052161699772
C          25.03569998135826    8.90222332877207   -1.48967736468514
C          24.23807569504466    7.97788442254028   -0.78537536738658
C          22.91055871815777    7.87727563982299   -1.18310327536792
S          21.72991595253683    6.80189358133389   -0.48813135500727
C          24.79261452267178    7.18284303813437    0.29169787025943
C          25.66827272146116    7.57662556102643    1.26270420375774
C          26.02186770816286    6.52584718585283    2.13680353604782
C          25.42964602984220    5.33041712473719    1.85145089647116
S          24.39874864387814    5.49442307501550    0.46993858192217
C          25.57704279074612    4.02703869833953    2.54690467535578
Cl         27.11900964594640    6.75296698259594    3.44596570155998
C          26.42138934729248    9.14759001111567   -1.33791918939343
C          26.89618614219635   10.13188708169099   -2.15542659725667
S          25.64473451516759   10.80107249635061   -3.17724824093485
C          28.23762429683055   10.61577875567830   -2.23254692194917
C          29.29139877016190   10.25101596015578   -1.44647067297254
C          30.50015941365441   10.91342563262060   -1.77335590484808
C          31.76303053857344   10.75770500774677   -1.17031476920031
C          31.97031641410464    9.76709971200219   -0.13300279316234
C          31.49658307928447    8.48699043807143   -0.09382460302727
C          31.86667388238183    7.80484718597988    1.08554804388670
C          32.61542350256809    8.54423439713703    1.95369956971403
S          32.88723268708709   10.12666598554782    1.30414664050872
C          33.16861598909433    8.15217618714746    3.27459346608027
Cl         31.39305145024323    6.17585738928463    1.38892894459077
C          32.77635930119675   11.59410178949157   -1.62733219761505
C          32.59735959105043   12.52545042395161   -2.67748004866978
C          31.35022557808364   12.64056484883558   -3.31731911324696
C          30.32245773428596   11.84234527493890   -2.82716746357720
S          28.68541897087581   11.81833661161046   -3.42110419437490
C          31.15856342611034   13.54453705435992   -4.43518018545623
C          31.98818048160292   13.75314802883986   -5.49820735160237
C          31.48240977897757   14.71340308080241   -6.40203291796986
C          30.27972909714505   15.24765765997144   -6.04381282452254
S          29.73926263399381   14.54764132626529   -4.55504228055319
C          29.47025529223981   16.27666690944489   -6.74429141340485
Cl         32.32893633300969   15.15975027267768   -7.83538005339503
C          33.78918954838384   13.26800897986256   -2.92652246102059
C          34.81486497230499   12.89674771042804   -2.13426632428042
S          34.41294458475583   11.62926757107240   -1.02916014228239
H          -3.87849212959592   -2.17939362723688   -0.58254816921719
H          -2.25755610992343   -2.18718147176444    1.44416442771209
H           1.56574197372453   -0.11070687346206    3.31095666243014
H           0.43440859996909   -4.92892749886705    5.25820433505063
H          -1.12218132554369   -4.15432979883763    5.54410461770028
H           0.30588615371809   -3.62802314464474    6.45307407977148
H           2.47427100280207   -0.92148955850574   -3.87194960922056
H           0.24906347468725    1.30867911021772   -7.60686730609549
H          -0.77989322675975    2.34866594741543   -6.60516172123234
H          -1.36200058719420    0.76467296859162   -7.11230981983069
H           3.08120036579929    0.69560163026963   -2.33462674458794
H           5.17727893503032    1.73486297414205   -2.29954333751859
H           6.48741970065989    1.13911450347402   -4.09308710825653
H           6.59956507254249    4.68356695797605   -7.45433061067176
H           8.03467355339219    5.49514480729028   -6.80011588400278
H           6.42900384155290    5.97843014173008   -6.25948709484831
H           8.24380595539042   -0.82708100599113    2.08807332542888
H          10.33593067249001    0.46688064876769    6.30935210181447
H          10.31121175334071    2.21335781432752    5.99959879581840
H          11.70438369189221    1.25290449704488    5.50483369695556
H          11.52707255498572    2.41631798566411    0.90875234160021
H          12.81368211989922    5.08630184082270   -2.84208581797837
H          13.03967682200332    7.36699057232219   -3.00439910231576
H          15.03758564085506    7.39963177695188   -7.96904998753849
H          15.60691086945998    8.95687459232822   -7.37212042124887
H          13.87389336281399    8.69377706298999   -7.63067868791742
H          19.01938703446180    3.30420723642869    0.33238326310488
H          18.23336179880339    2.01122964391030    4.97693168399512
H          16.49599950056496    1.76147796474813    4.74015160162694
H          17.08505289835851    3.31604162649078    5.32429810012859
H          19.28207317092214    5.58188704651095    0.17291279384218
H          20.38648071387317    8.77077736806240   -3.22314499546404
H          20.63425075035945   11.06116432181793   -3.00929103721492
H          22.21145655634816   11.88759260786020   -8.01830127905448
H          23.05923672132789   13.22837246112282   -7.25215206168883
H          21.28790643195276   13.23548416591743   -7.33514905529722
H          26.01704810434811    8.58528308573936    1.38602346861193
H          26.16261164280841    4.15833162417491    3.45355225530812
H          26.08125343492309    3.30423161054637    1.90527208993433
H          24.60112900579170    3.62006214383129    2.80729190841683
H          27.04754144283228    8.59055785398118   -0.66737215963340
H          29.20459931956435    9.55320498615640   -0.63540741130563
H          30.94218255593537    8.02606323317361   -0.89043287420936
H          32.85051239604608    7.14199450197884    3.52034842648740
H          32.82341912741196    8.83217077857782    4.05248421884354
H          34.25769905931442    8.18600946054897    3.25895983780137
H          32.90510529372477   13.21725980835241   -5.66030166724134
H          29.36535498761040   17.16816842242391   -6.12639068655632
H          28.47165652629815   15.89749708856326   -6.95756255898460
H          29.95355795266470   16.55072925268925   -7.67874050547547
H          33.85350677751278   14.05698690294943   -3.65258755186767
H          35.81027962990282   13.29538582308224   -2.11547681868880
