144
 SCF done       -268.677027444458          0.000924849221
C          -3.34299649101076   -1.38042081063631    1.68921608619644
C          -2.47184175725555   -1.78595341731535    0.74412484838441
C          -1.22491946533475   -1.09612293464848    0.80270894535515
C          -0.10468304179574   -1.24747907965351   -0.03422291774137
C          -0.08602293063629   -2.14896257657795   -1.17009174596744
C           0.94645751543872   -2.93300209122805   -1.59697912503017
C           0.64182904842534   -3.64270622323959   -2.77902079836600
C          -0.60628855959666   -3.40680057099963   -3.27542799741092
S          -1.44325426470100   -2.28500920792661   -2.25598069486435
C          -1.25139323202081   -3.97266721957916   -4.48706608099397
Cl          1.76830445387660   -4.71363457676264   -3.52057950310416
C           1.00392091739826   -0.46142755031448    0.26584471206293
C           1.03118299150310    0.47523214526323    1.32760351895508
C          -0.09948959911293    0.64766540457262    2.14770527594790
C          -1.19601812300133   -0.16525892101880    1.86780883464580
S          -2.71425992213112   -0.14702656118066    2.72358271379195
C          -0.14904729327320    1.63374805807399    3.20807080560331
C          -0.73997099659653    1.52191599543820    4.43395469189477
C          -0.64497859990960    2.70581605752904    5.19699120744526
C          -0.00083086315592    3.73323852665087    4.57221742054667
S           0.51710349977233    3.23270655864469    2.99874304227266
C           0.27498844540795    5.10439557531210    5.07009874437523
Cl         -1.29646038385031    2.82592362254201    6.78673379323219
C           2.28018754944820    1.14017981740761    1.40865489078320
C           3.16259158772815    0.77130758865222    0.43899937971850
S           2.50086063391463   -0.44954704684166   -0.62751773902629
C           4.48154305708182    1.27210527218586    0.23666301777493
C           5.36019437986960    0.95322233329835   -0.75440399397245
C           6.58409962501327    1.66504453844768   -0.68146902825365
C           7.70345573838042    1.55636671267653   -1.53010746033825
C           7.66230679720572    0.71818565738460   -2.71117593811010
C           6.63610667602332    0.57636256523183   -3.60068417806342
C           6.93483114351967   -0.33593300043558   -4.63565044311839
C           8.17488480693185   -0.89847262702233   -4.55199526779834
S           9.01155804997256   -0.28642033834475   -3.16504153523172
C           8.80471861699750   -1.89885135141225   -5.45039526915388
Cl          5.81346262713628   -0.69697467610780   -5.89309753168444
C           8.82283970390692    2.30251304285246   -1.17910687127659
C           8.86571465508538    3.16023165896681   -0.05330675794369
C           7.73979308642648    3.28757045141551    0.78308154062267
C           6.62199476048715    2.53478184035747    0.43510813235761
S           5.12792488001792    2.47747307016254    1.33033155910160
C           7.72515750971041    4.12951226906825    1.96236515637668
C           6.68636429695612    4.87186379930240    2.44606987651832
C           6.99342169177566    5.51560286233482    3.66435860480645
C           8.25096677478837    5.27386136173412    4.13279718735380
S           9.09327733556799    4.22750353541756    3.04006745870934
C           8.90004711992777    5.77527599612670    5.37044786771651
Cl          5.85720800820647    6.52030409158069    4.48015849793582
C          10.10313061125640    3.84483185011397    0.03682402047033
C          10.98628274826949    3.53594923134381   -0.95304991544938
S          10.31424227694892    2.36542756566277   -2.07153131577222
C          12.31709067433775    4.06263426480826   -1.15778497112163
C          12.97793699791612    3.85242481791036   -2.37523570703360
C          14.22526111619501    4.39234102806892   -2.57099095511581
C          14.84388869951359    5.14537303359581   -1.55876973280835
C          14.20818689919688    5.33844535692789   -0.34108440605537
C          12.95345734948947    4.79725056869480   -0.14918472612033
C          16.12265907560463    5.61147838644391   -2.04833128576359
C          16.29666730967825    5.14393495743970   -3.36259305893327
C          15.10634793443409    4.31994506516190   -3.79578522691108
C          14.41168089211443    4.93945264775389   -5.02272989799869
C          13.97326820718268    6.38023982418543   -4.78934416397501
C          15.51008368554530    2.86738406870786   -4.11059407225483
C          16.21276121988730    2.18255924926427   -2.94461314409910
C          17.42800441549898    5.46405944066075   -4.07051084599694
C          18.41151566598974    6.28068644514476   -3.48663212923228
C          18.22660611434739    6.72580928372555   -2.16989523075489
C          17.09772490204401    6.39633309574759   -1.44922883189757
C          19.56179648334103    6.63882899435856   -4.27913829706470
C          20.48354330914566    7.57332791271763   -3.96581071612899
C          21.58556467224537    7.93699191789477   -4.79062687397557
C          22.00245896356181    7.40830483681910   -5.99970475695559
C          23.11945514878138    8.07201266893639   -6.50778834298211
C          23.56125707149006    9.11659559794044   -5.68151231061826
S          22.60544378399807    9.27270507233816   -4.27611410116664
C          24.67835365437499    9.73784359266487   -6.29686235082343
C          24.94620376127449    9.08314202631538   -7.51040868036866
C          23.98032488914146    8.01172362482806   -7.68203239497038
C          23.89158147736121    7.13537093381396   -8.72346713498190
C          22.89668065807567    6.13715568500879   -8.77886890380240
N          22.08647560834957    5.32678834449662   -8.82483706934191
C          24.78545508825846    7.16999280966663   -9.81457029460129
N          25.50796111397195    7.18847664919619  -10.70490638726710
C          26.02400079814776    9.64286810905049   -8.20167550452036
C          26.57081470673620   10.71419025293006   -7.52812097103692
S          25.74747834705218   11.03435407727720   -6.00584426501666
C          27.65426884242727   11.54154913164714   -7.93631077881692
C          28.17054332788216   12.62273982728605   -7.28090287188543
C          29.23647554633100   13.24124739459370   -7.97744660904235
C          30.00217543338200   14.35551707510724   -7.64904416238880
C          30.98910407727870   14.74040173134623   -8.54756087559437
C          31.16318279691184   13.98456515186916   -9.73552227649833
N          30.45158877929911   12.92885699618598  -10.06393294680212
C          29.51842233989887   12.57629061379497   -9.20574848856331
S          28.47138269928940   11.22022212870855   -9.46282236301299
S          32.44092240436031   14.61079908632724  -10.74202401068219
C          32.73203867919963   15.87517371499862   -9.57250523433292
C          31.91641079653803   15.82429490088511   -8.49310896740993
F          31.95550170514942   16.68924349189760   -7.47043134154090
F          33.68910141050961   16.76697968046038   -9.80183220863807
H          -4.33917779440469   -1.73685525055828    1.86369855374860
H          -2.69420467210631   -2.55480159344135    0.02818736064403
H           1.88114607892037   -3.03604336042509   -1.07823720846418
H          -0.56074133055909   -4.64718945663802   -4.98694453097463
H          -1.53431854745408   -3.17909329285811   -5.17797074100950
H          -2.15360595292418   -4.52279045466427   -4.22106754848667
H          -1.19729132494802    0.62385704564985    4.80476313706058
H          -0.09246266162275    5.20484509863481    6.08829442024886
H          -0.21633972663193    5.84730353291741    4.44208777534090
H           1.34492804177121    5.30950719485920    5.05640161159432
H           2.53071968359883    1.86543194679555    2.16074294175013
H           5.14142510252834    0.20981262364603   -1.49891813387428
H           5.71596526471377    1.12865806392651   -3.55220958797416
H           8.88263075683417   -2.86594054754851   -4.95296641911925
H           9.80823839192469   -1.58400619505979   -5.73117878378263
H           8.20190069446987   -2.01656766516853   -6.34759716659555
H           5.74448963720028    4.99181172900067    1.94442610117791
H           8.23555106997632    6.47235104383105    5.87494479936190
H           9.83573213932466    6.28151549894821    5.13625185406019
H           9.12515737289893    4.95087156442969    6.04704272738819
H          10.31034051104951    4.56900770861956    0.80126559321169
H          12.49013255735996    3.27769734754714   -3.14949998058796
H          14.68373114429382    5.90439147277612    0.44583140707875
H          12.45733982398137    4.93561120295856    0.79847333846638
H          13.54004666346406    4.33168663069756   -5.27374224967978
H          15.09986325179565    4.90288284608920   -5.86971938225711
H          13.26677723401837    6.43787403781261   -3.96426001868539
H          13.49257267472864    6.77391484747120   -5.68187678528042
H          14.82854343126555    7.00970532728772   -4.55300100213540
H          16.16965470280241    2.86910863375551   -4.98091522400634
H          14.61123391969608    2.30532523316763   -4.37221045151093
H          17.12379658538521    2.71396844271480   -2.67786564256018
H          16.47603405885831    1.16256831082874   -3.21458187109785
H          15.56535903625793    2.15097543783965   -2.07108238615862
H          17.56715010373347    5.10985029186836   -5.08207248807665
H          18.98601394044465    7.33270619514920   -1.70195422182707
H          16.97451098595232    6.74871364093400   -0.43601472297703
H          19.64972710827735    6.11996296519183   -5.22449258080591
H          20.40139353504135    8.13110071391871   -3.04352537643319
H          21.51426627864251    6.58163854426420   -6.48095818106207
H          26.39979524116435    9.30326212234980   -9.14999247513775
H          27.79940026370556   12.97095687721925   -6.33318856934443
H          29.83830709499540   14.90395980325469   -6.73407673588464
