120
 SCF done       -226.877346671264          0.000568041849
C          -3.39551196101816   -1.12513332449176    1.87452551223431
C          -2.47276656734459   -1.77310936678644    1.13583308329909
C          -1.25536432091133   -1.04282620649798    0.99907632961842
C          -0.07556967038848   -1.42973027834530    0.33802242975978
C           0.04135629247345   -2.67204665554687   -0.40085293469066
C           1.11459540152308   -3.51408561692421   -0.45107174963983
C           0.90731482839436   -4.61333585760078   -1.31239566772949
C          -0.30524623482870   -4.62287065699221   -1.93661954152536
S          -1.23106131689699   -3.24450188207365   -1.44590584732747
C          -0.85391960877473   -5.61722583344623   -2.89303564412875
Cl          2.10026386382758   -5.83323658917358   -1.54547173301265
C           0.99993305880477   -0.55050016593263    0.42421208118396
C           0.95130741548702    0.67694623069528    1.12926446570847
C          -0.23438562187374    1.07217146175474    1.77650993365146
C          -1.31079061009502    0.19194464308245    1.68734788314048
S          -2.86146788802981    0.41337219954690    2.45204221472636
C          -0.35135141056764    2.32145207653797    2.50113113993531
C          -1.42616981943581    3.16302526362902    2.54139281598472
C          -1.21565099836237    4.27940354568796    3.37903066873268
C           0.00123881013301    4.30394557461790    3.99517563335963
S           0.92543371290986    2.91693025156625    3.52909040598446
C           0.55405104062195    5.31499658416822    4.93108758788678
Cl         -2.40860496796217    5.50287445639562    3.59229553964732
C           2.17284157558961    1.38894377820762    1.02770290934419
C           3.11807236393324    0.75406763212103    0.28074604182603
S           2.54669676573993   -0.77716410728131   -0.34757257245483
C           4.44680810671719    1.19517618171654    0.01004288781680
C           5.33924655459397    0.67694514391041   -0.87965915162734
C           6.58796557971627    1.34668513570246   -0.88769511537391
C           7.72607844112161    1.04624153470143   -1.66284234063256
C           7.67185379721936    0.04532919564292   -2.70826011258598
C           6.66234491388062   -0.17166954596910   -3.60212071170192
C           6.94377874752740   -1.22810572470001   -4.49484730519219
C           8.15317983343363   -1.82777312269962   -4.29688338887444
S           8.98161080411193   -1.07150257862495   -2.97783365829789
C           8.76230036161884   -2.96198248832657   -5.03600020374494
Cl          5.84033207300559   -1.70449507121220   -5.72929270606978
C           8.87697878102390    1.77054944299937   -1.37833658942576
C           8.93608230681976    2.78997879594327   -0.39501252343504
C           7.78577981352920    3.12085474137156    0.35078298494137
C           6.63547739139513    2.38833595934579    0.07030662822624
S           5.10836184424678    2.55449536213014    0.89382554223367
C           7.78567680587435    4.13306189990773    1.38661268308087
C           6.77738467624654    4.99461106916871    1.71505730731075
C           7.08779507865175    5.79935562785865    2.83179282911642
C           8.31683567863582    5.56567817756981    3.37622724705226
S           9.12521227887078    4.32053107795590    2.48841197844213
C           8.95953528828193    6.21338334812283    4.54696397864867
Cl          5.99222500813018    6.97699580326876    3.44646990323956
C          10.21726096096871    3.38674940958380   -0.33341367538742
C          11.11621158053631    2.85078270769879   -1.21226513762964
S          10.40767532608069    1.58069514815192   -2.18595857931792
C          12.48702736163227    3.20306415576242   -1.36291245546774
C          13.21754465166763    4.07013939150173   -0.57346600194630
C          14.54698053048064    4.15895880816227   -0.98898324364522
C          14.82660381571535    3.35517497414907   -2.10579941629506
S          13.45604356152433    2.48989663369808   -2.64019311998388
C          16.20032900398443    3.50508328040363   -2.43711526046376
C          16.78350665918602    4.39819373600917   -1.52523248971342
C          15.76846942396202    4.83768976203452   -0.58476816813864
C          15.93208556427743    5.69289862623478    0.46721315136275
C          14.86577935847845    6.04583089627303    1.31949988310124
N          14.00047981604390    6.33806483066213    2.01380615673505
C          17.17923616256076    6.27292216838620    0.77516916007133
N          18.19035880145758    6.74572532437197    1.04002634984941
C          18.14397085207074    4.60593657741657   -1.75959724498709
C          18.61023693453406    3.88439930562498   -2.83699436173544
S          17.32424654438953    2.92869861449825   -3.58088331312128
C          19.94237609169927    3.82579651169034   -3.37448492676536
C          20.20487056284930    3.11519907564888   -4.53669864971672
C          21.47516325356433    3.04416351985254   -5.09094381071619
C          22.55767654193242    3.68082656035123   -4.51220309102169
C          22.34615921895398    4.39260090673178   -3.30273784964408
C          21.04330210476622    4.47603964839500   -2.73744484138882
N          20.86068837282146    5.16471086852839   -1.59537277536336
C          21.87670468517785    5.73409174294014   -1.00214073301735
C          23.18736934258659    5.61242415433577   -1.54647406055075
N          23.38798930029190    4.96375175668859   -2.66284353805186
C          24.37645469875261    6.20850116594338   -0.87065603407647
C          21.61220162050616    6.49158305430086    0.25390850275273
C          23.86912379962033    3.57496245144184   -5.14952676542404
N          24.06018948668171    2.48510971671464   -5.89415707413409
N          25.17135421075247    2.28557742467465   -6.52115957981155
C          26.16509915429798    3.14827526759657   -6.42553311861645
C          26.06457483230064    4.31822464693124   -5.67420902489294
C          24.87086625211485    4.55070724787167   -5.02627047607617
H          -4.38499724658213   -1.45232192534185    2.12714284810834
H          -2.63648323623378   -2.74426663520857    0.70795460256393
H           2.01083543882296   -3.38497150684595    0.12639020904749
H          -0.08000125996483   -6.33281413494590   -3.15957575596645
H          -1.21185691911417   -5.12520651410964   -3.79627865768668
H          -1.69178188676038   -6.15543469876578   -2.44926543704343
H          -2.32509562895749    3.02206217624086    1.97100128057887
H          -0.15519884670799    6.13047019865312    5.04899495723498
H           1.49496921039238    5.71344797063681    4.55317613866489
H           0.74699862575868    4.87064593155705    5.90732257370662
H           2.35233135284302    2.34816421649817    1.47684456192338
H           5.11427185681888   -0.17948385252347   -1.48866408400653
H           5.76876103070416    0.42205210549219   -3.65721419150503
H           8.85576393802168   -3.83511262594441   -4.39025481653075
H           9.75802796028743   -2.69795848099165   -5.38916668366564
H           8.13862895386434   -3.22130444330804   -5.88797191784171
H           5.85922134395548    5.08835811583565    1.16605446575187
H           8.41970002934208    7.12063322990302    4.80759586814254
H           9.99582244027002    6.46197017841519    4.32557880759382
H           8.95074152158182    5.54415901250106    5.40811444740349
H          10.46573177019029    4.19520113128554    0.32677063215377
H          12.79991641257790    4.59549055019653    0.26499681946811
H          18.79206250190674    5.24179687639909   -1.18682191642855
H          19.39168428456884    2.60516568696049   -5.03370235351850
H          21.63781585750425    2.48395102665669   -5.99832654521795
H          24.47076771534477    5.81725119973972    0.14101713734422
H          24.27106970779498    7.29050320083700   -0.80294737371449
H          25.27366811358522    5.96752168078143   -1.43386113367662
H          20.54800469261443    6.49084089422318    0.47337592898439
H          21.95737361533451    7.51958140230677    0.15498601810575
H          22.14864248546962    6.03799825193307    1.08636098432938
H          27.05949460503893    2.89296057456386   -6.97558353491998
H          26.88565039744667    5.01752170764080   -5.61943076105568
H          24.69603042536304    5.44123030486463   -4.44586865366195
