132
 SCF done       -248.334272711852          0.000321175900
C          -2.48178158396856    0.82624972571544   -5.20289333183961
C          -1.61510613382149    0.07337828825872   -4.49664891492742
C          -0.40576401457694    0.76081769178788   -4.18266479034560
C           0.73013454476226    0.26849799605869   -3.51342349981488
C           0.79452731039969   -1.06550327626301   -2.94893650804151
C           1.85920111925186   -1.91935864061870   -2.94125851045463
C           1.59201816230383   -3.11988444550206   -2.24748482730386
C           0.34131597166472   -3.19701952882741   -1.70953507898128
S          -0.54544275445269   -1.75461229633364   -2.07185702501018
C          -0.26950467121686   -4.29595531666602   -0.91968017128764
Cl          2.76203052867965   -4.37524090980711   -2.10310802969479
C           1.81024205270842    1.13748597344124   -3.40174624271752
C           1.80589587051824    2.45949131665812   -3.90898076572252
C           0.67686319001838    2.94570733548717   -4.59491191574973
C          -0.40704404804719    2.07647881113192   -4.70129067967559
S          -1.89889605799102    2.41926215538266   -5.53552123590205
C           0.63865808694674    4.25303162623100   -5.21760720605668
C          -0.41482370519188    5.11746140893802   -5.29903534185419
C          -0.13315473559870    6.24985400416746   -6.09242339367534
C           1.11886212058718    6.26710433627384   -6.63395113448946
S           1.99416966356608    4.86017159600070   -6.13450238742328
C           1.70374904582808    7.27345812562613   -7.55722725520396
Cl         -1.27949305242561    7.50522964756531   -6.36396282382712
C           2.99488845524152    3.15799210213811   -3.58892773726401
C           3.90797880220725    2.41363893450605   -2.89308387991814
S           3.30723703905452    0.78877923293420   -2.58632834751605
C           5.19383598093038    2.75877218069502   -2.39814912326073
S           5.91740834802050    1.75704350852349   -1.18477310162271
C           7.31895340466650    2.76900839860178   -1.03461440490124
C           7.25604262334665    3.82019326143755   -1.96333213144233
C           6.04376807225172    3.82488037760527   -2.72393418448409
C           5.85488940814459    4.81830895574511   -3.70306142515171
C           6.80039074541215    5.78995093467913   -3.89065096656646
S           6.57982623669516    7.09901212957264   -5.04652233115943
C           4.75298289037246    7.30101448330450   -5.04669138092854
C           4.41133000650866    8.71519013713453   -5.47376747275099
C           8.03267338367206    5.75297203790508   -3.17524741387697
S           9.19968951140543    6.99898764964521   -3.59948132544246
C          10.53171431563408    6.83505616443502   -2.35755895007406
C          10.11296118100491    7.33601013335110   -0.98805273727591
C           8.25511803964670    4.76834493043273   -2.25037088277156
C           8.25541326775076    2.44307589377549   -0.02571840451765
C           9.19763406375484    3.25293558061102    0.51905029526389
C          10.08715127024253    2.85562383850600    1.54992979962605
C          11.02314243037307    3.65306943129437    2.16264953590026
C          11.75742240752764    2.99431166720070    3.16804921128349
C          11.36286239917583    1.65195923981793    3.31683136011515
S          10.09309638084555    1.22666515700656    2.20581595293928
C          11.91943851818435    0.77946549975046    4.24159533695921
O          11.38602474343934   -0.46791249388527    4.20663696849622
C          11.83228394078498   -1.51609635584740    5.03014348200441
C          12.93536636607393    1.30780154389576    5.06971374478436
C          13.34459412022272    2.67447392264250    4.91646748350335
C          12.78248295203546    3.52851922849753    3.98527745139097
O          13.06750845205477    4.82958849951737    3.72897000867378
C          14.05705570376204    5.51618095323503    4.46007875297169
S          14.62051602940768    3.07474924209128    6.06610861405631
C          14.58968027988335    1.46927695144682    6.72502224926376
C          13.66245564814697    0.67316413824555    6.09892512254297
C          15.45354679579976    1.09466429237792    7.79361531975229
C          16.36265484541468    2.01839652582713    8.34609741366063
C          17.24509311276818    1.68314699002348    9.42698055719547
N          18.09177736246765    2.62016335108500    9.89801658543831
C          18.09191947384094    3.80432129413624    9.37332609988894
C          17.21698380208012    4.13610908063351    8.31293565962231
N          16.39085025407439    3.26241215138967    7.82893077399606
F          17.21333962456697    5.35787755790081    7.77461928925223
F          18.94568207803965    4.70420363340827    9.86157786889533
C          17.26199062532475    0.40451307829637   10.02013344373357
C          16.35568749811810   -0.53232736395572    9.46825705736557
C          15.46754820190068   -0.19490467258418    8.37390585715191
N          14.70592287092276   -1.23024528158338    8.01988016051498
S          15.06091905362593   -2.49295278463338    8.95495281910110
N          16.19389915978861   -1.79737961190002    9.85470503685208
C          18.13638879941642    0.09915252453525   11.10599946192404
C          18.24349570056931   -1.10373185822568   11.76337150441737
C          19.19133615567980   -1.08977468154388   12.80535504272547
C          19.81648507613402    0.16378789380958   12.93119445056825
S          19.22363224292722    1.30666972261536   11.75811127314353
C          20.79035307253417    0.43973195286486   13.88334799515783
O          21.25718026441781    1.71764292765823   13.84628550572877
C          22.48748807439930    2.08202063469344   14.42007821315400
C          21.13311138156893   -0.60369738131527   14.75991764823379
C          20.50976995212791   -1.88439200256690   14.61852186355001
C          19.54642478130958   -2.15867574910710   13.66025490949886
O          18.88092912238300   -3.31353473861259   13.41447397388280
C          19.11856961013401   -4.47234107179196   14.17546368947670
S          21.12192775816879   -3.00012626830462   15.83280744616175
C          22.13932063909287   -1.78200029675571   16.49841148611641
C          22.05031445965571   -0.60092355847830   15.85680459681212
H          -3.45374420973475    0.55092518356344   -5.56241792763703
H          -1.81333757881008   -0.94324242769333   -4.21343370127095
H           2.79209834664814   -1.72564044043681   -3.43682940033156
H           0.42217534193060   -5.13275666884546   -0.86299193177023
H          -1.19739398226292   -4.63163416162030   -1.38119719413454
H          -0.50022917191360   -3.96002791165585    0.09117184812426
H          -1.35200047267331    4.97274555159092   -4.79512168138419
H           1.28294070877746    7.15374177018552   -8.55655236687775
H           2.78180250291585    7.15877610241772   -7.62293187743904
H           1.46602443251195    8.27989263266756   -7.21631384773155
H           3.12754781143380    4.19748943205930   -3.81616749560072
H           4.97834638631954    4.79148067410296   -4.32512133503540
H           4.41126257578460    7.10621725495932   -4.03059180451877
H           4.32290079199089    6.56741689051221   -5.72908905067621
H           4.89154737314935    9.43407583072034   -4.81451801218634
H           3.33490921063816    8.86418789954663   -5.42894350773664
H           4.75206055653460    8.90172203974528   -6.48925964768169
H          11.33292546290130    7.45149795881313   -2.76492062542215
H          10.86869906470529    5.79926083454364   -2.34128117693866
H           9.84107462586247    8.38733415726367   -1.04205926759180
H          10.93646996941313    7.22459740527445   -0.28506839431574
H           9.25449156812126    6.78294053866048   -0.61267328673915
H           9.20507899453589    4.68069748253527   -1.75574410780571
H           8.15749749191136    1.44638578787456    0.38880339908542
H           9.28661633908743    4.28521003401523    0.21657474425153
H          11.18269140847239    4.68496049741635    1.90863010453344
H          11.64479635021257   -1.30849056579356    6.08728391583433
H          12.89203567758174   -1.73325516115740    4.87164253686379
H          11.24104260034039   -2.38027695638197    4.72679625273534
H          14.06801716075547    6.52429411184396    4.04690176821082
H          15.04287774271609    5.06326416391003    4.33346509716508
H          13.81515259410133    5.56487765730495    5.52400367442856
H          13.54433951562791   -0.34266469954131    6.41696076890720
H          17.65998987088696   -1.96725312449073   11.50682705790216
H          22.76532377563765    3.01785836020999   13.93414836108352
H          23.26300251002180    1.33512355171967   14.23066049838808
H          22.39223015862028    2.26281310872480   15.49582416058513
H          18.46422078980905   -5.23181795167045   13.74878112824316
H          18.86187369784056   -4.32766026955209   15.22820977055024
H          20.15643016013301   -4.80635520618927   14.09580317663002
H          22.74931615885507   -2.02732704557372   17.34543562196983
H          22.61599951158380    0.25289627349970   16.17473265349367
