129
 SCF done       -243.129552886692          0.000427607554
C          16.84405440347776   -0.09236784561329  -11.98715305177730
C          15.86089846644018   -0.46551925946504  -11.14370415740564
C          15.89300539454717    0.23984659067385   -9.90491449335019
C          15.03466655432388    0.10529087044061   -8.79889299401817
C          13.96969740375980   -0.87790208174543   -8.74346539879386
C          12.71924352357303   -0.73034010052300   -8.21718620265860
C          11.96098252596050   -1.92054454506365   -8.26797533371582
C          12.61382370381287   -2.98570405821092   -8.81429092475935
S          14.20989027836425   -2.51498846068695   -9.29358558322663
C          12.13006107487948   -4.37535366583869   -9.01394708941625
Cl         10.34392271944249   -2.00273101959722   -7.68084485007189
C          15.26810123445734    0.95727837146191   -7.72396286997514
C          16.32660846535966    1.89717330899801   -7.68677171951371
C          17.20445631989568    2.00678316783202   -8.78138238749668
C          16.94370001755971    1.18664201398999   -9.87486448805310
S          17.87305924375490    1.14090372950768  -11.34839388259731
C          18.32941605160990    2.92066256035644   -8.74791868360374
C          19.20240758933361    3.13893317398501   -7.72194258321061
C          20.17818606927347    4.11048119605849   -8.03551591903529
C          20.06181170647240    4.64533421157114   -9.28464812977514
S          18.71887355014221    3.93084921396965  -10.11270574197394
C          20.90252624722028    5.67988610239711   -9.93859628290480
Cl         21.40751632740715    4.57011833480820   -6.91798298033924
C          16.33705389279473    2.63914765519657   -6.47863743310521
C          15.35645732263174    2.27276958766207   -5.60253775217675
S          14.35104387448886    0.98869550741872   -6.24474945739288
C          15.08923143024530    2.79146312508043   -4.30353675688048
C          15.81142145472733    3.71912351084350   -3.58587186188318
C          15.25164092952066    3.96311836122656   -2.32938386862029
C          14.09108039483524    3.22297839469343   -2.07892952320688
S          13.68985802771407    2.21315954993818   -3.41814193891242
C          13.57026134624410    3.47737990145869   -0.80732510240782
C          14.33355056546593    4.41651557467050   -0.08813288991051
S          15.71301927694868    4.98836344465584   -0.98905402112365
C          13.71989273929043    4.59567519142504    1.14682195575013
C          12.60839147364616    3.75030499863974    1.16024128709191
N          12.52711902009538    3.08164121953979   -0.03726272849199
C          11.46479978378004    2.24213708757493   -0.51648797022095
C          11.68630302959311    3.54961586362798    2.24855616549637
C          11.25500816264235    4.62895552984205    3.05048957286356
C          10.32324723787119    4.46992132366118    4.12974272614789
N           9.97798500604936    5.55064396601397    4.86275545361933
C          10.46818466800199    6.72371705443327    4.57269001184415
C          11.34517568450873    6.89021891983878    3.45752176587364
N          11.71114159851570    5.86419895697152    2.74357801575382
C          11.87558039493843    8.22876045340386    3.06648974381089
C          10.07320056875177    7.87394101483228    5.43735769387702
C           9.76075893950411    3.20874229254030    4.44472148212098
C          10.24969071475397    2.12495231093755    3.68824719480755
C          11.19792020643405    2.28429095909313    2.61216077778029
N          11.54767135919859    1.10200979215198    2.09070456195339
S          10.75617594159700   -0.06832297739690    2.85059920249528
N           9.93046555044440    0.84478624143480    3.88284177651342
C           8.76328443902036    2.98817409615222    5.43673701324883
C           8.14385338829907    3.90126031878868    6.26913912106699
C           7.17149393988454    3.31165283076168    7.07117207186513
C           7.02965236208066    1.93467579736302    6.85998011902351
S           8.13404349024139    1.36160819618084    5.66237804744146
C           6.02297107219999    1.38922533957001    7.66079579918660
C           5.40385954075038    2.34676060722827    8.48697443555226
S           6.06630159645971    3.94390917385417    8.27495557340964
C           4.42462895834297    1.69015931702288    9.22417499306436
C           4.45558358375185    0.35234715350602    8.82327854820543
N           5.44006244781830    0.18245578198419    7.87416714182409
C           5.88689278391928   -1.03097329235565    7.24834092293571
C           3.59793178303748   -0.68713810297042    9.29787078934905
C           3.28865381363644   -1.89504251238302    8.74510598751679
C           2.38494050775523   -2.66839830767426    9.51683553094058
C           1.90102355218316   -3.96055109292407    9.24066416431855
C           2.34059046354598   -4.72897320793932    8.09357104373595
C           1.60368740668068   -5.56943918217869    7.31055599443160
C           2.37288851733583   -6.20659729247016    6.31186487059019
C           3.69616521974506   -5.87836018109408    6.31898241814624
S           4.01192595520013   -4.74252102175199    7.58726646927807
C           4.78359203658630   -6.35785034082286    5.42892122463037
Cl          1.67861359608889   -7.30546874304260    5.18212186896870
C           0.98998366046565   -4.48847003960158   10.15382638946931
C           0.57819081636148   -3.80866780184669   11.32372565118905
C           1.07974481431101   -2.52577234569651   11.60899489174461
C           1.96530952866544   -1.98476049636832   10.68226979592652
S           2.74268870003478   -0.43053820316377   10.80901046865880
C           0.72519273178968   -1.79087496164332   12.80798550706408
C           0.47233497303966   -0.45470623650907   12.92197318993343
C           0.21329247264369   -0.05900906677224   14.25241599517678
C           0.27599867216092   -1.06952636596973   15.16602695765623
S           0.65438832452849   -2.56023766058604   14.37056186385941
C           0.06725671039707   -1.01422185051184   16.63502593091861
Cl         -0.15141425894203    1.57168042380535   14.66924546770476
C          -0.35034426106875   -4.58338867893984   12.08035149143431
C          -0.60356328542853   -5.78738263957458   11.53070812369556
S           0.25159580551992   -6.06420932492397   10.05404443121273
H          17.04032629035806   -0.46272119437242  -12.97417557102583
H          15.12560560532130   -1.20957442606233  -11.38686927635293
H          12.32951439429140    0.19466564245921   -7.83530119455847
H          12.71635870750130   -5.07512840357458   -8.41850166533219
H          12.22025902758812   -4.66757035602855  -10.05940650160635
H          11.08750859229077   -4.44587009723149   -8.71385896233362
H          19.18417389143888    2.60068899372064   -6.79230664699168
H          21.66690230543886    6.02342610561195   -9.24604032560508
H          20.29476084296093    6.52969704090150  -10.24703326918567
H          21.38620911734142    5.27397783591137  -10.82664518937943
H          17.03228189991511    3.43290692040446   -6.28070725879384
H          16.70498077562847    4.18910971886658   -3.95138233333021
H          14.02846297749977    5.22700022988521    1.95297605656873
H          11.62123289988468    1.20417966211195   -0.21619952534921
H          11.43674440366108    2.29997528392224   -1.60461967147273
H          10.51120439186719    2.58360110506597   -0.11361374985181
H          12.46018263287797    8.65706751495045    3.87950771233204
H          11.05705136445917    8.91185704720372    2.84487324936678
H          12.50440647705583    8.12158043546582    2.18734704035075
H           9.41927620052977    7.52703038081060    6.23231090441101
H           9.55359853951338    8.62894197597097    4.84899300335311
H          10.95576000657734    8.33796580716923    5.87515460569445
H           8.40460738117683    4.94167042240534    6.26542065175934
H           3.75485240448816    2.10646152455243    9.94916907799427
H           5.91919045802356   -1.84457175138617    7.97340751611337
H           6.88755964704667   -0.86259993370758    6.85112232500280
H           5.23259300792349   -1.31339753003169    6.41962357993174
H           3.64627467959996   -2.21850430981870    7.78852920713839
H           0.54404492666708   -5.71184501169043    7.40977978465667
H           4.36322314133045   -6.97937076036104    4.64225402653193
H           5.50908999542514   -6.94576994733936    5.99127982256755
H           5.31049709354506   -5.51829000349883    4.97732022696443
H           0.43653483983984    0.22506667604103   12.09137479992708
H          -0.18769571689704    0.00075227698154   16.92939430672962
H           0.97044503914171   -1.31921202307692   17.16298199713356
H          -0.73831377915215   -1.68377130414988   16.93469892421401
H          -0.80767586391550   -4.24285430419706   12.99032547231972
H          -1.25971392384599   -6.55383795098956   11.89372421012199
