125
 SCF done       -229.660038350812          0.000980069746
C           2.66336153730924   -0.85533252987664   -9.16152902020727
C           3.35587912598317    0.27439300172113   -9.40998350658019
C           4.04592882591134    0.76750578824593   -8.26404024895639
C           4.85114430851082    1.91578509987668   -8.15602870558813
C           5.04832261993536    2.84658005979029   -9.25050900130560
C           6.19359501005337    3.50430615303574   -9.59482027238718
C           6.00985946005009    4.39435222441256  -10.67548479803438
C           4.73620175841262    4.43969173277630  -11.16094408877734
S           3.72759755734216    3.34871328145884  -10.27232462813897
C           4.18999454152552    5.25735908545780  -12.27352253761241
Cl          7.30069382014786    5.33876147760359  -11.31391420720993
C           5.44526830683735    2.14147001548543   -6.91808931188451
C           5.24510762311321    1.30793637373445   -5.79197739247553
C           4.40943278666054    0.17870256299336   -5.89186400484685
C           3.85296036700590   -0.07309823739316   -7.14171933981734
S           2.80026150513056   -1.40700098199043   -7.52938405960998
C           4.14057663222813   -0.65242211935030   -4.73576275407488
C           3.87005165000099   -0.24983382645023   -3.45960247045992
C           3.66543536669958   -1.33448999717741   -2.57940612270267
C           3.78099939355138   -2.56330927176929   -3.16009565268063
S           4.14275220902755   -2.39116370456854   -4.84482419488790
C           3.63397124228463   -3.90460283784407   -2.54064916838846
Cl          3.30136240917731   -1.10492890844274   -0.91083359364160
C           5.96728771329817    1.76399096741922   -4.66435548375340
C           6.67464044889721    2.91529379909251   -4.87761139260493
S           6.48358605987155    3.48216057394514   -6.52676493763215
C           7.45228300131791    3.60513348755109   -3.90383323746581
C           8.28582350597260    4.71037367703383   -4.00940866100778
C           8.56819548325563    5.48217105911637   -5.25912995162540
C           7.53152069004697    6.58860869892688   -5.46327151642543
C           8.83818868753553    5.08129684093487   -2.77969924225911
C           8.45783724408450    4.28886194597582   -1.71395545969246
S           7.38553757517348    3.02985924193410   -2.25731883483346
C           8.79255699685133    4.39109837494775   -0.34376048561762
C           9.55231356048451    5.38602333525570    0.18807404581714
C           9.85719964133654    5.52854216963286    1.55096941592100
C          10.58167444928023    6.58391984774879    2.11825424133171
C          10.69254273787315    6.48755892259657    3.54624651534359
N          11.34046045008681    7.40425270499813    4.25823861215470
C          11.87956999186289    8.40845763081295    3.59716819724590
C          12.60072944083924    9.42846905754268    4.38942318216207
O          12.69053962350787    9.38172499976775    5.60077285919740
C          13.20653799321587   10.51298613681419    3.59970489154842
C          13.11059866231364   10.60412332368543    2.26876752138516
C          12.38832615329626    9.63177341529849    1.43272686544058
O          12.30842054651352    9.75147612435811    0.22605925171817
C          11.77229495477460    8.50421156921660    2.17140688700461
N          11.13218283549163    7.60347683229245    1.45555518854490
C          10.06344609434777    5.35600004404688    4.08899645353876
S           9.34714369265468    4.42791647947621    2.80523203926822
C          10.02912795907737    5.06882790153390    5.46333800558492
C           9.47733059674533    3.98906362555561    6.15956846493080
C           8.80701008957119    2.81573187474606    5.52096334492834
C           9.83709063616273    1.79837793382076    5.02491694520430
C           9.65748609910475    4.10484273017367    7.53401731828494
C          10.32416323147223    5.25555408813454    7.92358076402264
S          10.76066848639272    6.22346016166850    6.54824719238855
C          10.65536588670434    5.71784454501447    9.22393132647813
C          10.46227448579782    5.02714015178839   10.37199426973704
C          10.77089573336294    5.52702158530291   11.66962782396727
C          11.13946943211919    6.78802497165427   12.05019093363086
C          11.35552146228776    6.92765416732331   13.44153203696710
C          11.68977024605288    8.09770253228439   14.15235796822322
C          11.95866925000915    9.33926499139168   13.45584582568235
C          12.69427204170658    9.52165802713980   12.32030227707151
C          12.73410742118204   10.87129792310254   11.90706078063280
C          12.03227793471609   11.72555392968723   12.70688254104108
S          11.30864494793554   10.85545214043733   14.01728804157540
C          11.85117594008796   13.19253732228735   12.56774858704164
Cl         13.59785506520499   11.37631920478572   10.50451508021356
C          11.74759794283976    7.98821121736026   15.53732565118238
C          11.52099861101761    6.77719494141624   16.23408046801052
C          11.20358985749435    5.60419478704435   15.52502883748701
C          11.12894380359138    5.71575378916949   14.13984859334056
S          10.67858202322732    4.44023193123203   13.04393935969661
C          10.94737559170727    4.33429821453441   16.17700551326994
C          11.33599184518127    3.09308304882521   15.76343772565788
C          10.86755053154452    2.06386472945883   16.60900055876864
C          10.11282828904613    2.49390298723650   17.66014552735463
S           9.97790386593434    4.21986885834660   17.62101274884163
C           9.46397064882791    1.69677740076872   18.73169752486429
Cl         11.23042330309550    0.40478176898418   16.32143622898131
C          11.70507833240745    6.94179141007967   17.63810258811968
C          12.04066038584280    8.20214231817795   17.98079136747076
S          12.16071916419967    9.27834750724152   16.63485157863488
H           2.06695165412990   -1.42572353239358   -9.84626740166050
H           3.39045035295930    0.74519553477856  -10.37460175160197
H           7.14702341736040    3.34293863578523   -9.12771258832272
H           4.98925447063758    5.83885504668326  -12.72612831008101
H           3.42116089613560    5.93803880206462  -11.90856293862392
H           3.73969782318262    4.62028222704544  -13.03389414481697
H           3.77500050788645    0.77702699898301   -3.15876013159397
H           3.43873312830900   -3.79772560675460   -1.47651005171549
H           4.54066968148630   -4.49253328020074   -2.67815158206598
H           2.80890356657133   -4.44916041400871   -2.99890406641582
H           5.98610194832670    1.24545951513938   -3.72312863912480
H           8.57129961612318    4.81921386966749   -6.12512453842993
H           9.55903361617260    5.93226854624204   -5.17260209102782
H           6.53369578558860    6.16641646066176   -5.55273246881340
H           7.75261427404112    7.14485547178152   -6.37021305074237
H           7.54238656458634    7.27602085947616   -4.62045741888299
H           9.50779083262645    5.91573499996451   -2.67418198405787
H           8.38858294490275    3.63054089807349    0.31274542215675
H           9.96242474197115    6.16654021825754   -0.43704424095594
H          13.74535320802859   11.25303883039936    4.17619972876500
H          13.56874191237973   11.42085904558821    1.72700949901622
H           8.18751501550259    3.14512476764838    4.68414117889665
H           8.15750486587071    2.33852543102388    6.25691653764689
H          10.49990282417302    2.24873913742398    4.29038429326725
H           9.33586407099907    0.95155780112618    4.56373571175230
H          10.43898835566491    1.43817823690348    5.85581174585877
H           9.29501978392189    3.37106609945905    8.23158674345220
H          11.10192770596663    6.70143322195039    9.26325980747474
H          10.06119388981768    4.02418884004875   10.33670778242463
H          11.21183709451566    7.60887416282311   11.36226775222201
H          13.22653541364068    8.73674243166735   11.81539672845540
H          12.37748405869079   13.54304190689435   11.68356489567243
H          12.24140117569136   13.71171076162116   13.44247442919261
H          10.79474272352621   13.44176837688477   12.47367787781955
H          11.96030363389122    2.90981866086299   14.90899944364927
H           9.67791428163560    0.64143896299992   18.58211538202022
H           8.38442187438052    1.84433660853726   18.72016762203040
H           9.83277371365016    1.99774389921568   19.71185179100726
H          11.59871334937691    6.14573901207386   18.35092426959541
H          12.23359779305138    8.58668813367754   18.96315707254965
