160
 SCF done       -297.173985114268          0.000198319791
C          11.29469029366688  -14.36495882440923   -3.61175623373562
C          11.40922104498313  -14.23421066283992   -4.94854993723441
C          11.21978315303073  -12.89312427690466   -5.39455637720446
C          11.25743791428493  -12.39645335987814   -6.71002555650393
C          11.45750379638820  -13.24970255194737   -7.86602533062949
C          12.21473707206885  -12.99336301431428   -8.97186862418630
C          12.14294100811373  -14.02429792740484   -9.93419554326431
C          11.33159562848162  -15.06486344508261   -9.59013526515953
S          10.63690657688572  -14.77902040741568   -8.02974557344558
C          11.02067001806836  -16.29846923624437  -10.35585244965193
Cl         13.01755861462340  -13.95700985596955  -11.41645928829681
C          11.08403510639553  -11.02442582580879   -6.86149708436280
C          10.85185274954321  -10.14421744651445   -5.77718672081975
C          10.76909262548181  -10.64896447238073   -4.46604327055680
C          10.98311764940715  -12.01523311629871   -4.31060850213292
S          10.95651125372753  -12.87857878862485   -2.79714184716499
C          10.44869676134620   -9.77804537539719   -3.35288760639934
C           9.50645195903482   -8.79093638963596   -3.30983968092569
C           9.46059037615113   -8.13719917861297   -2.05953774901190
C          10.35926405816733   -8.60303581305282   -1.14516990843791
S          11.28757377221183   -9.89399415484031   -1.83053028785441
C          10.57845280081823   -8.15719809858028    0.25412980078239
Cl          8.35544019488123   -6.85616476443740   -1.73232970778148
C          10.74019928288621   -8.79714277129653   -6.20410552170730
C          10.83179963792298   -8.63982275336313   -7.55527431062392
S          11.08320426387611  -10.16730404789524   -8.37962631413716
C          10.75728957246019   -7.43206276357664   -8.30392871347305
S          10.67961491106436   -5.88679462583878   -7.50369321162465
C          10.61738638597393   -5.05561238417370   -9.03278394023064
C          10.64990085871351   -5.94902566336660  -10.08032511124162
C          10.73380523347513   -7.28070096516454   -9.67104412961366
C          10.55639699035382   -3.63772249827026   -9.09266101780768
C          10.65162437116522   -2.73182847681913   -8.05980862942304
C          10.57423499591011   -1.40277573119146   -8.47746930357497
C          10.40768214300064   -1.26417106340285   -9.83782079676527
S          10.35368028118350   -2.82123582250922  -10.61812605403920
C          10.28458571189752   -0.07106403757219  -10.59696689344963
S          10.51022540770401    1.49140458120042   -9.86268787962861
C          10.19726661484601    2.29816537355109  -11.37727726379944
C           9.93247241693364    1.37693548623750  -12.37038761177943
C           9.98798331523565    0.05370360081898  -11.93743379179738
C          10.23222914840584    3.70949746810600  -11.51478683712587
C          10.59911796602976    4.58051673775657  -10.54856521370652
C          10.63679617724321    5.99041856598038  -10.71597156350949
C          11.09893325086567    6.92848235203959   -9.81936287299723
C          11.03669076651101    8.25352832832403  -10.27848939808647
C          11.52906168567684    9.37367792301759   -9.46265439884595
C          12.52627133402865   10.20889780252493   -9.93547784736757
C          12.98886007477044   11.26515464983133   -9.14796888835223
C          12.46431916693930   11.45344286565153   -7.88006598836650
C          11.47043204501480   10.60024985015919   -7.39738026851984
C          11.00121318767571    9.56038450591124   -8.18611242011248
O          11.03339851213798   10.88141694588835   -6.13927671619082
C          10.02540595549605   10.07522664283037   -5.58088556571055
O          13.94360799956867   12.04932013976246   -9.71479142008628
C          14.44533655975200   13.13435819016116   -8.97117424904589
C          10.48333587066843    8.34356537698391  -11.54829165994489
S          10.07922900033109    6.76799020580090  -12.16897478694074
C          10.15774743895271    9.49239209691852  -12.32653418709831
C          10.28170743181794   10.81318899031461  -12.00441349912296
C           9.83963609364724   11.69517680320843  -13.01676363655999
C           9.90669914291710   13.10213830740966  -13.01362029215156
C          10.41854484162339   13.82032082129393  -11.86298941564557
C          10.16967703268087   13.58897284675793  -10.54097379110866
C          10.86628666482279   14.47709471711983   -9.69316161515311
C          11.65091521200559   15.38264151260090  -10.34508730187057
S          11.53007829289033   15.14724716808382  -12.05547256785686
C          12.50699666548495   16.45645239623446   -9.77873270530739
Cl         10.71844014998380   14.40839891417039   -7.97644785240736
C           9.47940009636700   13.74399762545676  -14.16898042981164
C           8.97915453733328   13.05763762321414  -15.30362717344154
C           8.91842403741487   11.64902310378241  -15.30898134355319
C           9.35182759778495   11.00616211386464  -14.15353768815622
S           9.44953295759827    9.28295729557436  -13.92059681098222
C           8.45310372286448   10.88888905766723  -16.45087214539083
C           7.72560257499389    9.73304599661834  -16.44338195207919
C           7.49331331421581    9.22486668208402  -17.73936608758212
C           8.04163185611168    9.96528659825075  -18.74511117081827
S           8.86421679747047   11.33766041516285  -18.08509812004830
C           8.00313612902528    9.72377504393209  -20.20961522242278
Cl          6.58758711535626    7.78575548438181  -18.01162297893223
C           8.55790663490965   13.95661022037888  -16.31359772296625
C           8.73322852763889   15.26866383675463  -15.98901364827676
S           9.43363764891495   15.47030701665169  -14.39701797198316
C           8.42626662314640   16.41059808476982  -16.78412218653923
C           8.56444618157063   17.72216164634437  -16.44242001397935
C           8.17908411941291   18.62134224934152  -17.46813892330253
C           8.21005720397933   20.02846833070850  -17.44552517128001
C           8.76165932203559   20.73959542598455  -16.30988254846925
C           9.88720661397682   20.43516021241344  -15.59934394438378
C          10.12206999885698   21.33797424728352  -14.53988549118141
C           9.19166742059086   22.32874334608365  -14.42436138601184
S           7.98889421798155   22.15896455912637  -15.65870368233518
C           9.12300477365785   23.43188634068314  -13.43292464753523
Cl         11.47743610318915   21.18279662015815  -13.48764749484497
C           7.69752675990581   20.67951742767325  -18.56378302964263
C           7.21761568291498   19.99596922543753  -19.70537216623130
C           7.24259222971159   18.59033375107760  -19.75151798751196
C           7.70030017226248   17.93800633454268  -18.61242584957679
S           7.79787012510599   16.21028068087475  -18.40672976463921
C           6.82442478442567   17.87150126771554  -20.93990207928707
C           7.12203100765858   18.16042547881505  -22.23980826920239
C           6.54590197299777   17.24356694520427  -23.14652417679986
C           5.80671230197274   16.25878030141378  -22.56032485771490
S           5.82117223473391   16.45118639138888  -20.83893597616846
C           5.06070872598208   15.14638599277152  -23.20151104272660
Cl          6.77127566589012   17.37336521364864  -24.85023224254517
C           6.73281849746827   20.90256454103089  -20.69374742407706
C           6.86837593214712   22.19443705770253  -20.33307142771704
S           7.58630747394023   22.40612108636117  -18.77442965058339
H          11.39396190067997  -15.25825957891930   -3.02687693775860
H          11.62974840417353  -15.05483414232318   -5.60527674019749
H          12.83117423838733  -12.12225023337499   -9.09231967530881
H          11.60799073990319  -16.31813954879957  -11.27051928762368
H           9.96271017258103  -16.33317377653908  -10.61544346456651
H          11.25027940135142  -17.18519987130206   -9.76630819834650
H           8.83771108920219   -8.56148265059390   -4.11867502398607
H          10.06511276787678   -7.21377194040683    0.42400998226641
H          11.64072621346314   -8.02927605511993    0.45399073904486
H          10.19081868342693   -8.89652615561972    0.95569006016551
H          10.61627550815696   -7.96555691647524   -5.53458851175486
H          10.62004886097996   -5.63297977912911  -11.10800715810032
H          10.77397345056948   -8.11894599685007  -10.34396569196084
H          10.77891468872149   -3.03765212661374   -7.03635404415028
H          10.63225023353340   -0.55666570067288   -7.81587991861906
H           9.71147795652879    1.66750444803482  -13.38198548691217
H           9.81366085128715   -0.79969973165763  -12.56892796339815
H           9.95223844144652    4.09042005988433  -12.48938534923234
H          10.90277967399423    4.20794067918907   -9.57833796506476
H          11.50157390170647    6.66379925673098   -8.85735552631026
H          12.95578782091025   10.06274396308193  -10.91350769970476
H          12.79214856154376   12.24695482677691   -7.23043564390552
H          10.22482286183315    8.89612115998636   -7.84229837515610
H           9.83840101724928   10.48269877700902   -4.58858912489125
H          10.34849252547915    9.03318008498364   -5.48870597539761
H           9.10284515932740   10.11890613870171   -6.16881720174943
H          15.15946012475812   13.63259407220253   -9.62498134610535
H          14.95817429054382   12.79548497434602   -8.06542880098239
H          13.65037135068557   13.83408638656156   -8.69882815332658
H          10.70274630981720   11.15027100462060  -11.07868408002244
H           9.48552352320373   12.84545588748897  -10.17604844852331
H          12.43180878639224   16.45414545779645   -8.69394326370683
H          12.19180543930528   17.43022050188160  -10.15198810208801
H          13.54829022354924   16.31076126680330  -10.06469672393087
H           7.33488967226881    9.27076264578682  -15.55630301746194
H           8.99551013523301    9.47044366955204  -20.58317529094283
H           7.66416524810627   10.61465382319492  -20.73618510166866
H           7.32693618156355    8.90061158363775  -20.42698051357062
H           8.12438117727895   13.65591502286746  -17.24960562672539
H           8.90764708786957   18.03012788671186  -15.47171703380052
H          10.55188810576401   19.62639885279146  -15.84038568289471
H           9.98446238285646   23.38442587982982  -12.77139004012847
H           8.21443330702745   23.35570293213410  -12.83618892043591
H           9.11347179352625   24.39819457210862  -13.93562039939870
H           7.76052620404782   18.96859910004842  -22.54533877498167
H           3.99179863139729   15.24150809813616  -23.01177270635809
H           5.38744494364335   14.18681880411059  -22.80314022804640
H           5.23000079569654   15.16192564679394  -24.27529594291171
H           6.28423994105779   20.58617337697916  -21.61708936761658
H           6.58256503910111   23.06692091529027  -20.88733015071848
