71
 SCF done       -152.626612430221          0.000513576556
C          -5.32439847672277   -3.60318911272744    6.50456557903695
C          -4.97730622996247   -3.32862953379028    5.20388932128134
N          -5.56315899917061   -2.19613035480778    4.55806533355751
O          -6.48151881367212   -1.65731379493837    5.14025747411276
O          -5.12319608177419   -1.82572525047876    3.49001236181003
C          -4.04276439800033   -4.25243114559953    4.65363984670053
C          -3.51782899862034   -4.20120446567258    3.26203242557955
C          -3.69998653865796   -5.22033392041216    5.58360529501707
S          -4.52518799100684   -4.96768836846107    7.10660338170185
C          -2.81366170468504   -6.32997671961098    5.42180858738817
S          -2.19412986624785   -6.75844414040542    3.85166880693872
C          -1.30740562279728   -8.10276004187330    4.47590881459012
C          -1.48284734783940   -8.20505782540508    5.84288538672774
C          -2.33113488098204   -7.21589985536548    6.37786325860668
S          -2.75313568324908   -7.07102993917950    8.07966854470483
C          -1.77072604439128   -8.19119930439815    9.03974259797184
O          -1.88795842681989   -8.10438671037719   10.22930744774021
C          -0.87207338297321   -9.25496540374305    8.44858263844838
O          -0.28664428370889  -10.00527588775356    9.17980751717121
S          -0.67859154246859   -9.50602392687563    6.71538390146627
C          -0.50634351918693   -8.93887689481789    3.63446786986518
C          -0.44025370721331   -8.80208093735550    2.30956207750002
C           0.45489407403004   -9.62258633895969    1.42786133046374
C           1.76930769668574   -8.91684199737063    1.27353557139189
N           2.52144361228818   -8.59807518323337    2.30568001366240
S           3.85860460253634   -7.84538682364662    1.78427981172600
N           3.50132617338139   -7.91056141426764    0.20408812542832
C           2.34093977172166   -8.51244747127380    0.04111967630186
C           1.69892919961510   -8.66437625296279   -1.29560238304507
C           0.40477652314819   -9.38634707951844   -1.14957404082627
C          -0.15809256201273   -9.81604321646001    0.07864804558605
N          -1.32339679586862  -10.40634888455915   -0.08238299872176
S          -1.69897239100326  -10.42406103619987   -1.65799040201128
N          -0.36121652679548   -9.67603896666109   -2.18018663348574
C           1.46566621943485   -7.24810246592748   -1.90956132375735
C           0.71478069984553   -6.40795379722232   -0.93291289922599
N          -0.50951415841498   -6.69602009442640   -0.54515374677699
S          -0.98458776170004   -5.61644042109346    0.57471206914445
N           0.39010795539076   -4.75902192322678    0.59998438393081
C           1.24300820885648   -5.27220445306553   -0.26033862079879
C           2.58174477772383   -4.66948933034187   -0.51696666229864
C           3.31550200963287   -5.48977583069399   -1.52558873024511
C           2.78643888652387   -6.62163367048920   -2.19707409170469
N           3.62862497913814   -7.12600719553765   -3.07371043766965
S           4.99422267357144   -6.25234783960408   -3.06193899249486
N           4.53147864001220   -5.19132204191364   -1.92871501116163
C           2.42735739858773   -3.25554623911417   -1.03818472780738
C           1.70249044935936   -2.98221294206219   -2.16916979684315
C           1.58456822769642   -1.67206461245810   -2.65925396319508
C           2.19626437431634   -0.62836323785094   -2.02301458602218
C           2.95098302507237   -0.86995044277564   -0.85881243394181
N           3.55981242823414    0.15635965902680   -0.22819347468568
C           4.24819157228092   -0.11966635555679    0.84440852796813
C           4.35887900108265   -1.43412420990903    1.34550632888845
N           3.78111064020123   -2.44719590234446    0.76150690447340
C           3.06724870381847   -2.19670231908947   -0.35572790110162
H          -6.00454263104084   -3.03947850468653    7.11264989634508
H          -3.85596503382709   -3.29900662470181    2.76318328019084
H          -3.86270395250080   -5.06620952042354    2.69568121248210
H          -2.42868567958684   -4.21376302529317    3.26165448679587
H           0.06731998833016   -9.70263960981158    4.14090832526684
H          -1.02033446829540   -8.03841027913207    1.80930752267504
H           0.62890804068950  -10.59455958057880    1.90570547306058
H           2.36128543346971   -9.19776316140435   -1.98624771548067
H           0.88739320902238   -7.39309620500394   -2.82788902930460
H           3.16054841349879   -4.59828149413829    0.41167906451205
H           1.21257732939616   -3.78750089263607   -2.69963757492544
H           1.00425757225678   -1.49937280424635   -3.55318916642296
H           2.12383915779207    0.38516852317332   -2.38405286735454
H           4.73338074582275    0.71137167523167    1.33856442383900
H           4.92964208675791   -1.64852463146955    2.23923726923497
