132
 SCF done       -264.310864323679          0.000343876680
C          14.96211397980133   -1.86688825997151   -4.42001394328382
C          13.77836130678758   -2.38777244197330   -4.04121646030548
C          12.73689209894620   -1.41562174753643   -3.98358039802162
C          11.38102014672685   -1.61285981767537   -3.67429116625486
C          10.85111954284109   -2.88389340480538   -3.22150778830088
C           9.64813207949020   -3.44796099952566   -3.52985376357696
C           9.40544848073355   -4.64082452894760   -2.81514312938122
C          10.39392215839471   -4.98831759955621   -1.94145397414960
S          11.68544643465539   -3.83672870353791   -2.02347841081772
C          10.44849252964398   -6.13572064086852   -1.00015441403619
Cl          7.96851284473644   -5.56518172194472   -3.04982037323585
C          10.55469641683942   -0.49551165776926   -3.76390966102435
C          11.02362905948306    0.79579209289365   -4.10046127571366
C          12.38281816131314    0.99525835609853   -4.40332999982386
C          13.20389567048137   -0.12894933899907   -4.34090292269992
S          14.90420553942429   -0.16551991218637   -4.72155598931414
C          12.92025915729399    2.29106854334351   -4.76630537594571
C          14.11733676303846    2.83400403060463   -4.39818631310681
C          14.34232393792624    4.10252253108455   -4.97541651034625
C          13.34222339081433    4.53751900327943   -5.79490016624036
S          12.07479266129787    3.36064621172065   -5.85320983680112
C          13.24615451348049    5.80742402292314   -6.55776543658331
Cl         15.76958522877172    5.01282715297713   -4.66135668470764
C           9.99268801228148    1.76961222341119   -4.00485731612931
C           8.78629170724385    1.25652183324502   -3.65028997127693
S           8.85183927840706   -0.47680249104243   -3.40102166454915
C           7.57001911501442    1.99992523371237   -3.39419617013965
C           7.57548473423957    3.22493811128866   -2.79613520186152
F           8.65009978057818    3.90281004766941   -2.39415512850957
S           6.00985818370851    3.90576367371197   -2.51780003187034
C           5.32153965319911    2.49052299078884   -3.23824429785365
F           3.99564164959516    2.43234586468911   -3.35628704570014
C           6.22391829359300    1.55836952595483   -3.67162780845572
C           5.92449483950574    0.34713693742726   -4.39063413091986
C           4.71377963362194   -0.22909372609847   -4.50071045018297
C           4.46230866935941   -1.40323767267228   -5.27795891320695
C           5.31612296134136   -2.11298616680059   -6.07430413491515
C           4.71422600818602   -3.20915725131985   -6.73656347542073
C           5.30227412233794   -4.10513183267071   -7.65965774418188
C           6.73151009945667   -4.16926365229883   -7.86952268283567
C           7.43940360012307   -4.61729514888407   -8.95115657666932
C           8.83477299284885   -4.62523033610486   -8.73410335047933
C           9.22139617210210   -4.19547355177404   -7.49848796492175
S           7.82737083550443   -3.78299980956293   -6.56677781472016
C          10.58430291230581   -4.01499144450732   -6.94144938154842
Cl          9.95004599501932   -5.13920236154901   -9.94498078418828
C           4.42601951942881   -4.98347643325150   -8.29736987873601
C           3.05789143254413   -5.10071056644419   -7.95684117187253
C           2.48558689436342   -4.24757543616640   -6.99559857244952
C           3.33458226078053   -3.30654529638989   -6.42489963194022
S           2.84767712907169   -2.07411925813099   -5.29913452753650
C           1.07894934459448   -4.32758104199187   -6.65592455311891
C           0.01542070770829   -4.48112133318936   -7.49781314278436
C          -1.21941953753237   -4.50942554877572   -6.81366010942215
C          -1.11755611243057   -4.38662645784742   -5.45865814723046
S           0.54359223962392   -4.22003020789869   -5.00102958228250
C          -2.19776299604672   -4.38026344435138   -4.44025735315705
Cl         -2.72097962652264   -4.68380593889128   -7.63898218553704
C           2.42456048580716   -6.16062053167531   -8.65415320523747
C           3.23218115268661   -6.80474819124412   -9.54214864019766
S           4.84729741265725   -6.12222631912795   -9.54357125328544
C           2.83609987575591   -7.84632329776361  -10.46519552616606
C           1.52235867205124   -8.10264661296426  -10.75868350513968
F           0.45341944353396   -7.50787488560094  -10.22772695750926
S           1.24403125750845   -9.28875481137545  -11.98402490375564
C           2.95782433578156   -9.43839542787875  -12.13739981152415
F           3.45776099173674  -10.30198659611237  -13.02079472533666
C           3.69415145781935   -8.66503008681898  -11.28817733670444
C           5.14381416309263   -8.72407400242422  -11.33094909875875
C           5.96873930969983   -8.72129969598077  -10.27453009731848
C           7.39810500113300   -8.76240516032964  -10.39230140566982
C           8.16054224276092   -9.08848787365762  -11.47346932959875
C           9.55520196219601   -9.01711846768288  -11.23315034915349
C          10.59998302911822   -9.29213890373502  -12.13498765201518
C          10.32933797936854   -9.80481842752539  -13.46376054236172
C           9.44202702410657  -10.77924859333996  -13.81974993685721
C           9.45001264754758  -11.04175300249105  -15.20718699902222
C          10.32688940696385  -10.27868902790516  -15.92107508815695
S          11.17926269458774   -9.20617096842154  -14.86164423805508
C          10.59447752537754  -10.28774306580673  -17.38148217896292
Cl          8.43033946636823  -12.23393257833632  -15.92084673972176
C          11.89386509148206   -9.08668109237201  -11.66865367879351
C          12.18414403912864   -8.64679637448543  -10.35606251662160
C          11.13876130797186   -8.36196419585913   -9.45729847934008
C           9.84310390314768   -8.58002753584888   -9.91711756093583
S           8.37960665180364   -8.32673197258471   -9.00887037884256
C          11.41831510423637   -7.86884387334087   -8.12467897266267
C          12.38038023763049   -6.97761029366989   -7.74406446752732
C          12.39228733164795   -6.75578870925707   -6.35035375265282
C          11.45331426540538   -7.46071310054517   -5.65714843077388
S          10.51029742269115   -8.42093166887173   -6.74477272400151
C          11.19838467199238   -7.47896314064853   -4.19585971435143
Cl         13.50399179848492   -5.67029182941492   -5.60098108574769
C          13.59036392031253   -8.62331385055081  -10.11619176896542
C          14.31484010004045   -9.00235392563041  -11.18816760581436
S          13.35357026732268   -9.41349098106622  -12.56380357869197
H          15.89655889137293   -2.37786914559482   -4.54503420640064
H          13.63225634079241   -3.42868743001546   -3.82285422839550
H           8.96255224595694   -3.05537129339122   -4.25691606240152
H          10.42034559241613   -5.78163379555727    0.03025388664720
H          11.36627854050346   -6.70640375016777   -1.13052226964393
H           9.59541993312472   -6.78754219001899   -1.16879761348456
H          14.80477570027673    2.37208253715439   -3.71457864002712
H          12.41214241986650    6.40946034763549   -6.19721878188033
H          13.08304244167609    5.60855825427270   -7.61627397416725
H          14.16593481209797    6.37480529421810   -6.44029327926184
H          10.14648253457025    2.81609597874666   -4.18873206766117
H           6.77002799444620   -0.10482702577375   -4.88596560001371
H           3.85563303492444    0.18393733276251   -3.99151240458258
H           6.33968997653172   -1.82591841360929   -6.21718331619715
H           7.00435400793472   -4.89402989403105   -9.89270477018207
H          11.32213186360821   -4.36962857506037   -7.65573307366755
H          10.69496532096197   -4.56412657127083   -6.00770141451800
H          10.77638079588446   -2.96240225905370   -6.73011434739448
H           0.09399302078511   -4.53224482918794   -8.56800374415339
H          -3.16241840421602   -4.49084199925604   -4.92910211227207
H          -2.18897089816456   -3.44630708693061   -3.87936533063367
H          -2.06323837408149   -5.19749673912967   -3.73236233952100
H           1.40712848185549   -6.44060143500626   -8.46280350290087
H           5.55329251018168   -8.83729337121598  -12.32557559685299
H           5.57845868510985   -8.66669245113723   -9.26866015957296
H           7.74758826171824   -9.37319750863225  -12.42265927714464
H           8.83496044984257  -11.32550672314396  -13.12151874723916
H           9.95115562875740  -11.01726889240800  -17.86712575008097
H          11.63454356524991  -10.54627137022940  -17.57802721587016
H          10.40611150880557   -9.30538156684381  -17.81315223157787
H          13.03043968761709   -6.46426281812420   -8.42834769029685
H          10.16252107276464   -7.21927027935731   -3.98468995365915
H          11.85366459737224   -6.76405382922134   -3.70466098897989
H          11.38591324423408   -8.47124165703855   -3.78641243348306
H          14.02821224665560   -8.36630893586507   -9.16993480203704
H          15.38191600810067   -9.07440003535741  -11.26867683349531
