110
 SCF done       -208.166068748245          0.000397887245
C          -2.21199803333987   -4.00653584670962    1.07427495840636
C          -1.64204863423242   -3.18278855091488    1.97745089956451
C          -0.43047911733258   -2.59720539028025    1.50878773984832
C           0.39870843105336   -1.66546487715631    2.16099462132016
C           0.15910762937009   -1.20643410301122    3.51555805790857
C           0.33463378421429    0.05168758876889    4.01450501342121
C           0.08126300168863    0.12984587003479    5.40147307320760
C          -0.27486120650766   -1.05275107899547    5.97956451722337
S          -0.31281673969443   -2.30507182650294    4.78405020375364
C          -0.60030683187746   -1.33748870013551    7.39994479349320
Cl          0.21925514180913    1.60733039394937    6.27612396467315
C           1.50267113192193   -1.21312867907696    1.44732030116596
C           1.82402348559449   -1.65382614818790    0.14098980285078
C           0.97846497461420   -2.56628964718222   -0.52183450600481
C          -0.12354921574106   -3.02303802972363    0.19417601768658
S          -1.32756754092428   -4.13158871221807   -0.40435796509768
C           1.25156507744263   -2.97664665779802   -1.88324889411256
C           1.66670123419557   -2.19395669526654   -2.92272756438340
C           1.83589574237527   -2.92271564950947   -4.11955785610794
C           1.56309206136196   -4.25540168828043   -4.01183519297952
S           1.07245143463694   -4.63256421397236   -2.39451596307512
C           1.63652151202017   -5.30788267292046   -5.05615933497605
Cl          2.34656939221299   -2.17371121250551   -5.58526108697387
C           3.05385065717819   -1.12250811434620   -0.30691597276082
C           3.66156505483416   -0.27605972558692    0.58493678904594
S           2.70488614034228   -0.10408768623481    2.04743874608495
C           4.90863907888886    0.37004952371060    0.39536047851629
C           5.56934610095404    1.34513477109282    1.16058411618866
C           6.83522289594036    1.71116136831977    0.60931334698493
C           7.61936221032826    2.68543223636724    1.25310862262363
C           7.16223464245491    3.27277153354276    2.39949375490540
C           5.91524994561701    2.91548605996767    2.94224459706689
C           5.12799515765802    1.97366779620811    2.34205837169161
C           7.14896665198635    1.01181219566233   -0.57184931860629
S           5.85730110186073   -0.06918489024949   -0.98985662949653
C           8.33101381555378    1.09583441945258   -1.32519610444908
C           8.56068756487642    0.40541296019304   -2.48043074017914
C           9.74012785374526    0.39418996158998   -3.24904552556105
S           9.63251424391603   -0.15981456739824   -4.88679609081211
C          11.32077372814311    0.10232399214699   -5.20820730943596
C          11.95275967066583    0.63729288317417   -4.06864810448037
C          11.06955643184292    0.76300336747621   -2.95119621261042
C          11.59198569839270    1.15703956706143   -1.70832472707389
C          12.90906875493855    1.51761031377360   -1.59851455886722
S          13.61522940317313    2.00751542796330   -0.04291413898165
C          13.75862887878945    1.52463933865637   -2.73571376230689
O          15.04111067865314    1.94249957962895   -2.66818055192428
C          13.28095139958236    1.07507058395088   -3.94289155218846
C          11.80184454105125   -0.27555135503743   -6.47915260814946
C          13.09759407666285   -0.48751229725927   -6.83118812839627
C          13.54721469149132   -0.87755375976932   -8.12848463287836
C          12.79222444608427   -0.90096505335112   -9.26367388455351
C          13.24268743059302   -1.27842605270469  -10.55595181234153
C          12.37275752554797   -1.22856114797313  -11.64518636964914
C          12.77804803141521   -1.56584041719192  -12.94427566902760
N          13.10526190521299   -1.82397593259963  -14.01585028437263
C          11.03469384434284   -0.83481786403395  -11.50596565262419
N           9.93868223161035   -0.50940769860240  -11.38174350057802
C          14.58609392093229   -1.71492432512908  -10.76180095984373
C          15.53269314149354   -1.80987911831004   -9.79761618200743
S          15.24729616654480   -1.33264600742618   -8.13369993136961
C          16.88647837256537   -2.23384932856228  -10.04089482173575
C          17.26861687031704   -3.22901511744924  -10.87609220707874
C          18.64312910442830   -3.61280215193653  -11.17301051568310
C          19.75478266355112   -2.84157952439007  -10.96629571224152
C          21.06834147675298   -3.24554611757836  -11.28776455486067
N          22.15830270248905   -3.52205197806704  -11.51659309752231
C          19.74161286824786   -1.53450652772356  -10.43309296559349
N          19.80414833868839   -0.46444973170252  -10.02233955168464
C          18.61187373739545   -4.92278988916578  -11.80248984297985
C          17.26018164405543   -5.32151830177016  -11.96373846777878
C          16.36395204075827   -4.28184485302533  -11.43578654343174
O          15.15559229281754   -4.32000129796713  -11.39717398555885
C          16.90471995401937   -6.51820480571736  -12.53990288496477
C          17.92939669635103   -7.36059271322186  -12.97911363563179
C          19.27725678241149   -6.95664342451333  -12.80994056064516
C          19.63726860845848   -5.74815684116860  -12.22694951764808
S          20.37290361941753   -8.15507159677740  -13.41999161116524
C          19.04826593363156   -9.16288054089950  -13.88952704396009
C          17.83749586390049   -8.63526809663707  -13.60496389724828
H          -3.12113949721167   -4.56590315703502    1.17666141054130
H          -2.06629568284980   -2.98236587509623    2.94341614988900
H           0.59934061356094    0.90574962383814    3.41945566731791
H          -0.55581789531102   -0.41711591699862    7.97683866412046
H           0.10717215534358   -2.05214746132303    7.82000538536392
H          -1.59895465512430   -1.76385008578019    7.48793675746396
H           1.80472143255530   -1.13054173050560   -2.85777227373067
H           1.99525271619946   -4.87618207152704   -5.98717047436770
H           0.65416400051862   -5.74782257055290   -5.22565307763180
H           2.31251500329787   -6.10572076500652   -4.75096692604609
H           3.49909527358209   -1.37551791992722   -1.25194090350020
H           8.57212863019902    2.97179323982240    0.83441695220217
H           7.75743726521130    4.02365938568617    2.89693302397560
H           5.57844874306843    3.39933891354824    3.84629824496118
H           4.17210475051846    1.71377443391472    2.76570514355693
H           9.07354793600593    1.78451351020534   -0.95390859990780
H           7.73750422239284   -0.16954772483758   -2.88868650590863
H          10.96495374944596    1.14499766807701   -0.83193380541509
H          12.51638103445904    1.80454213448802    0.67519795541178
H          15.26546201600708    2.22437328247731   -1.77179134838060
H          13.95060865214120    1.09764516196772   -4.78382860664126
H          11.02695136422866   -0.46859167001703   -7.21020686460055
H          13.87186032782400   -0.42314518122630   -6.08209686929898
H          11.76068366440662   -0.58540605378392   -9.18895376473107
H          14.86515437531406   -1.96366343048224  -11.77596852612367
H          17.63732957405684   -1.72434385345565   -9.44830858824499
H          15.86648918427503   -6.78972785545713  -12.65089166085316
H          20.67649372330234   -5.48725530534034  -12.11531062467544
H          19.26177351241138  -10.10440742617793  -14.35712444749240
H          16.90284781217814   -9.11857380060515  -13.82430357811477
