84
 SCF done       -189.347526976442          0.000527665197
C           2.77398367480444   -7.63766466305983   -1.23997622772654
O           3.28434112615745   -6.56788293783653   -0.99334314351396
C           3.19961886938778   -8.96509335830304   -0.75864198437445
C           2.63704264881733   -9.96196334000892   -1.57562385600374
C           2.86649553569406  -11.29741867927423   -1.28553518180101
C           3.64152686294363  -11.61063356263699   -0.17583274834786
C           4.20466058386629  -10.61211526015115    0.62177491558484
C           3.99878779997552   -9.27334986485692    0.32098483716718
Br          5.23660928406164  -11.06738849553462    2.12897209980323
Br          3.92624064688185  -13.42700495233490    0.24855635564784
C           1.82951430474517   -9.33212874524839   -2.61812066124694
C           1.25712221997588   -9.96216605609077   -3.68848264469543
C           1.39308938922714  -11.34188111089996   -3.95597677113225
N           1.47866891570030  -12.45439384685521   -4.22114774415369
C           0.49497200328695   -9.30261328114900   -4.67680947199410
N          -0.13430753665348   -8.81049436585237   -5.50026885905852
C           1.73357096446652   -7.92490991232202   -2.27759463814274
C           0.84374231777924   -6.99678825041406   -2.72958598226494
C           0.55248068385351   -5.85583396767256   -1.94292544852660
C           0.61122842431534   -5.86602593066335   -0.53898227577147
C           0.21452854842735   -4.62084180834681    0.05459574054943
N           0.27512588235982   -4.45522907978629    1.37946448199529
C           0.69922394172671   -5.47000941228501    2.09616032425101
C           0.79193441117437   -5.27010610531112    3.56885716243282
O           0.47975828085224   -4.23097168441428    4.10419460191916
C           1.27195812753971   -6.44052175637688    4.32785156273730
C           1.53791460574889   -7.62862606111308    3.77499012665416
C           1.40281613269152   -7.90357400173465    2.33565630933145
O           1.64850703418791   -8.98982788979974    1.85106698802319
C           0.99713373122065   -6.73962926884117    1.50910585844834
N           0.93132172794455   -6.91867944766059    0.20952387784986
C          -0.18241518641636   -3.68601154070925   -0.90773323781584
S          -0.05844708660481   -4.34439211693624   -2.50173430237935
C          -0.59671511870329   -2.33260743544131   -0.74121846903249
C          -0.68581499858338   -1.69566298143986    0.51465960151275
N          -1.06812629058644   -0.44805192560560    0.61182082002101
C          -1.36866687794417    0.21854656979506   -0.51519513923073
C          -1.28080261511973   -0.41891359740897   -1.77109057562569
N          -0.90513126899325   -1.66836275248383   -1.86757809124025
C          -1.76762120096832    1.57724009338898   -0.35369166461615
C          -2.12028520419128    2.52061339272034   -1.32510582719353
C          -2.40710684533754    3.80315071753999   -0.74840575345776
N          -2.85498100462179    4.81182110670102   -1.49188707240246
C          -2.90064470910051    4.63174783721232   -2.79216909854005
C          -3.35265571010203    5.77643085030799   -3.62153700046599
O          -3.69156170390048    6.83659856342831   -3.13540306591729
C          -3.30593922753296    5.54934499447851   -5.07477206990691
C          -2.93777227032985    4.38972272263255   -5.62950792691805
C          -2.55580865981181    3.19345660429060   -4.85534513398264
O          -2.30878006402185    2.13102637255139   -5.37886149160973
C          -2.51814666039893    3.38501812207255   -3.37914593289457
N          -2.18169873604382    2.34735663547048   -2.64894170463520
C          -2.23176672207063    3.83732246727613    0.64543197033868
S          -1.79058651067986    2.27620646365431    1.22763477626775
C          -2.51632233855317    4.98559847341632    1.42362508441296
C          -2.38745849102172    6.22677734477187    0.87496167384189
C          -1.53912852737291    6.51684572156735   -0.32413226910371
O          -0.56050938910624    5.90628510059820   -0.69206293405660
C          -2.01214026292321    7.82632442237879   -0.81028930244304
C          -2.90449952189107    8.37882648669634    0.12568239842115
C          -3.05039516726883    7.46063645163935    1.25325204333486
C          -3.71307228679396    7.71540631680500    2.42222210923246
C          -3.81798328158956    6.79439144342395    3.48676969815709
N          -3.93318531246034    6.07828345154470    4.37569022227508
C          -4.33960785119512    8.94483400141943    2.72139108242812
N          -4.85856579681607    9.92472626913963    3.01498870816077
C          -3.51024157802513    9.59659545481000   -0.13975488555436
C          -3.22440695611597   10.23075589628622   -1.34241894075636
C          -2.32895163508743    9.67731683057450   -2.26009238616093
C          -1.69992466055416    8.47099264498294   -1.98766555828573
Br         -1.97555737557980   10.55079363767268   -3.88990055365641
Br         -4.07465866951180   11.87044215505155   -1.72817874464252
H           2.44906010300644  -12.09475313941727   -1.87953408370860
H           4.43346861886763   -8.49490113924740    0.92823538960043
H           0.26854687670172   -7.15370422039494   -3.63154170814378
H           1.38630543649782   -6.27811811671358    5.39111162924792
H           1.87625916851906   -8.46478895847251    4.37221268300870
H          -0.44085911402276   -2.21565762395204    1.42925123789902
H          -1.51840338326880    0.10320193549709   -2.68637269263573
H          -3.59146916508685    6.39835913520674   -5.68138341475285
H          -2.91437423269265    4.26378039414098   -6.70355122200695
H          -2.93146793670082    4.84152295242995    2.41147317671210
H          -4.20578950863227   10.05424883719161    0.54545038690075
H          -1.00269423302729    8.03814377484704   -2.68780003954753
