90
 SCF done       -184.582783634565          0.000963532161
N          10.59825902161785   -0.58074764318068   -0.42291922008086
C          10.68602023175726   -0.44893536565712    0.71346963176747
C          10.74363252880708   -0.29907768081566    2.11412332196612
C           9.86127370684202   -1.15810157399352    2.80568625260815
N           9.18955533757975   -1.91658953886114    3.34359330427173
C          11.63764569568735    0.51536591797674    2.75375604909832
C          11.79993671389948    0.63827124195293    4.18813855241354
C          10.90647128418105    0.56751609185791    5.20951529578468
C           9.49036546491329    0.63192093656713    5.16412369449698
C           8.64280507912797    0.26912841005655    6.18023016927399
C           7.28013900451519    0.50204580973669    5.89906474409010
C           6.16944281573013    0.23673362215550    6.70386792626442
C           4.92905221877825    0.58084953707280    6.22061126022612
S           3.40869277820250    0.36763078814293    7.04105791434154
C           2.54317324278950    1.06907003358911    5.68971685529802
C           1.12213356718576    1.20690212964797    5.74501495460756
C           0.28203352002586    1.61734307613502    4.74874197457378
C          -1.07918098771884    1.65680277674143    5.13792955902818
C          -2.18909872897526    2.02203841346564    4.37602011087821
C          -3.42519752360966    1.98857770671499    4.98129513109858
S          -4.94681460748900    2.39348800333882    4.23883959590400
C          -5.80112768755257    2.06252796489346    5.73366503730403
C          -7.22012666253513    2.21881015616307    5.79850654011858
C          -8.01181213930620    2.19238919579037    6.91271390902795
C          -9.38704986154508    2.37130649919357    6.63284059111586
C         -10.45701388041829    2.40147463546543    7.52660849729932
C         -11.72237309707706    2.57819540802188    7.01287701208102
S         -13.20229665001771    2.63791315815721    7.91788738150223
C         -14.13504211140112    2.89890801190367    6.45106298575701
C         -15.54315111135422    2.97543391150305    6.56031066719402
C         -16.47351122769595    3.41519399531088    5.66769689942299
C         -17.88855070138976    2.99214973325211    5.85700630853010
O         -18.36860686305722    2.47376521980409    6.83597440754631
C         -18.55490697359060    3.29418675390704    4.57091773385847
C         -19.84033765845446    2.99326576858167    4.17172811618702
C         -20.23174269473841    3.35270056703618    2.88820760042538
Br        -21.98570118831791    2.95272422447224    2.30955268600615
C         -19.33694172793543    3.99803688364667    2.03188745964084
Br        -19.87027799824524    4.45915998789810    0.27816548901400
C         -18.04501622068902    4.31067704297344    2.44033356069316
C         -17.65311310064425    3.95995109576721    3.72079270556305
C         -16.39781805179832    4.17794035938913    4.44055045990543
C         -15.46463469831538    5.12655078926614    4.11590828967042
C         -14.40431575941874    5.50422738296876    4.96497876385846
N         -13.54740476116697    5.86705599315646    5.63601389550577
C         -15.50307426992467    5.89243694355430    2.93185318835177
N         -15.48007836964766    6.52012785575785    1.97172403480024
C         -13.33275466115610    2.90841795201093    5.33461874847450
C         -11.96437678080062    2.72919934162626    5.61829652100378
C         -10.89059626345299    2.70430913951818    4.72303588977489
C          -9.62891427761500    2.53205862774880    5.23887355560871
S          -8.14398491421071    2.47169459114629    4.33167571856812
C          -4.95988787646931    1.66263288298366    6.73314863430211
C          -3.60097147667587    1.60533065158109    6.33848561977525
C          -2.49215267279815    1.23199736043554    7.09796985937873
C          -1.25682791075463    1.26055811141526    6.49110472017082
S           0.26294610384781    0.84225804060272    7.22960580033443
C           3.38026910024533    1.43877925822515    4.67335637052217
C           4.74437864190710    1.18014758743963    4.94334519003339
C           5.85385489755099    1.44386740646547    4.13825594098566
C           7.09519856713333    1.10460814515075    4.62397298650368
S           8.61493398151292    1.34371367532073    3.81230547819873
C          13.20712296480377    1.03805529305838    4.45812033168657
O          13.76443596703882    1.07767740088403    5.52820150727918
C          13.74412765245389    1.43708732827996    3.13657984384202
C          14.96262276059280    2.00946981482604    2.83555022923057
C          15.23032101961540    2.32894541963120    1.51039111461562
Br         16.88951778428863    3.11770752995067    1.06688783535843
C          14.28340291138690    2.07434484385629    0.51567914887444
Br         14.65080481316466    2.53437140383449   -1.28000597988350
C          13.06062425052732    1.48585416161210    0.81796595712689
C          12.79141222694745    1.16401914926026    2.13671620412160
H          11.33942470971130    0.54962344857535    6.20527767256754
H           8.99025180483974   -0.17982234069272    7.09388423628977
H           6.29030997123952   -0.22109508753327    7.67245490754932
H           0.61524430801291    1.87969176104010    3.76128235703947
H          -2.07565196286615    2.32066686687630    3.34615245421233
H          -7.62968704789168    2.06039987776272    7.90829998321923
H         -10.29224206272847    2.28712469864050    8.58589276749822
H         -15.96281575214163    2.55165153602680    7.46846945962614
H         -20.52222647824508    2.49158333948505    4.84061742939811
H         -17.37942572681581    4.80627145374627    1.75192404622938
H         -13.71270701403984    2.98923375712430    4.33138369316233
H         -11.05549701366656    2.82571615936332    3.66445158425813
H          -5.29336348058185    1.40302225883604    7.72128490591251
H          -2.60571481564380    0.93214865021952    8.12748302221082
H           3.04040156543049    1.89285401450385    3.76069924641124
H           5.73360169897690    1.89777028631745    3.16766172947734
H          15.68757586443402    2.20431654379732    3.61055239183822
H          12.34831972532140    1.30437542835748    0.02893958866287
