93
 SCF done       -192.780616106173          0.000470995761
C           1.32949206164587   -3.36857702531443    4.69013627311298
O           1.32606014282541   -4.56080235474896    4.48381931022865
C           2.32017900073986   -2.63546452481080    5.50892192650476
C           2.00026553877824   -1.26744378020143    5.54306522310295
C           2.80701974678781   -0.39162126338425    6.25147683181946
C           3.91629384092786   -0.90004790908038    6.91737736699902
C           4.22169349508387   -2.26313181119576    6.88352098854456
C           3.41875158296452   -3.14369230862656    6.17091824602613
Br          5.73097749095089   -2.92737720917128    7.80613597017855
Br          5.02130986679031    0.29328652664216    7.88045589878979
C           0.78467967008883   -1.05294128149054    4.76555191484670
C           0.06450725844142    0.10819888377095    4.71042211707459
C           0.45740082208378    1.30637636842319    5.34576729764161
N           0.73794226522837    2.30361439099589    5.83849527083818
C          -1.18692534764039    0.25076471740750    4.06974046604928
N          -2.22252373300684    0.43224231383447    3.61073074060108
C           0.41995639140510   -2.32285133842294    4.15396903291481
C          -0.43967399409839   -2.44694993955169    3.10353386721343
C          -0.90806297555873   -3.62959347859979    2.45689246558520
C          -1.05623413329528   -4.88608011404930    3.02678466797752
C          -1.53513066679485   -5.99089750777275    2.31786646953426
C          -1.91032699885120   -5.95023474691568    0.98384704894325
C          -1.81975815364323   -4.66978409503010    0.36615342510005
C          -1.33637771198455   -3.52865960210814    1.10198938420262
N          -1.35974496932805   -2.49745787865881    0.28272120436674
O          -1.82761588763587   -2.95138851352350   -0.87497618245297
N          -2.10739345446272   -4.25137891020488   -0.85040250793497
C          -2.34568886792131   -7.10276594495184    0.26059499368174
C          -2.72179442344614   -7.17067779988816   -1.05477615754944
C          -3.05265257133694   -8.47742515195564   -1.47965607630477
C          -2.92066654259603   -9.42870332712984   -0.42991398428474
S          -2.40297276832445   -8.67303390996408    1.04769723384422
C          -3.16373074324562  -10.77065850704123   -0.61181602230545
C          -3.54547923324259  -11.19693192648813   -1.88407040349152
C          -3.68577486106622  -10.24681635178585   -2.93348816834454
C          -3.45051815889436   -8.90380156157648   -2.74932865709652
S          -4.15547210946847  -11.02145781370423   -4.42221451360622
C          -4.14249545672960  -12.59258705400586   -3.64804599268359
C          -3.81342560778261  -12.51443365347239   -2.32317486629503
C          -4.42710559156371  -13.77347017343162   -4.40135681252807
C          -4.35761144082794  -15.06665883171434   -3.95745297675255
C          -4.66329917691636  -16.01790050147256   -4.95752302543836
C          -4.96488854975908  -15.40497792416667   -6.19207571624020
S          -4.88743485887852  -13.67179184334575   -6.08493512981613
C          -5.25138256121693  -16.09210587754018   -7.37021949581905
O          -5.50113203452964  -15.29117450697922   -8.42707023101215
C          -5.59991201002351  -15.79253089809303   -9.73935510281858
C          -5.24057345567995  -17.50135600050142   -7.30185263862421
C          -4.92574154634603  -18.10847212902299   -6.04775168791947
C          -4.65133896327272  -17.42205861849940   -4.88431828978177
O          -4.32601546905307  -18.10820371414350   -3.74080661895035
C          -5.33283870139148  -18.12194579882150   -2.74526824464392
S          -4.91199241963620  -19.84295006622950   -6.13269236579851
C          -5.34224451816894  -19.78065042269012   -7.83271531312053
C          -5.50807460734388  -18.49293970271777   -8.27519106789582
C          -5.55402541761728  -20.95491367363624   -8.60142397937157
C          -5.02918247598792  -22.19174982727561   -8.39402369556669
C          -5.67947887342137  -23.39650154445363   -8.97242965371272
O          -6.53016919259730  -23.42965545811261   -9.82903642999348
C          -5.09855518333300  -24.53423776547634   -8.22198468295912
C          -4.08540549598475  -24.06669790790755   -7.36331013656407
C          -3.92217651547030  -22.63058545818862   -7.56922857892906
C          -2.79582209207660  -21.90539450862740   -7.28667670005703
C          -2.56835012958776  -20.61476599648417   -7.81154697176043
N          -2.32935565947590  -19.59884145074931   -8.28903983390519
C          -1.70384994241596  -22.41049130208128   -6.55177879779740
N          -0.80255268292476  -22.78493356051678   -5.94880223185363
C          -3.41482832726532  -24.95209176144481   -6.53758927568207
C          -3.76468535010001  -26.29683210643910   -6.58421506688940
C          -4.76119077008429  -26.75623211639086   -7.44827389273117
C          -5.43807385246194  -25.87008474856895   -8.27698285988583
Br         -5.20674026532620  -28.59235772551811   -7.50002543373524
Br         -2.86398947046112  -27.50855594577284   -5.44742724850756
H           2.60508975725828    0.66635713945644    6.29566424667172
H           3.64469451943259   -4.19816817642493    6.13459573766453
H          -0.78733399047824   -1.53584659092182    2.62934079803722
H          -0.80720416501158   -5.02567346322123    4.06488961688318
H          -1.60845273100298   -6.93415129257790    2.83927450362608
H          -2.74815320266720   -6.30544265566557   -1.69219736226512
H          -3.05372457158603  -11.47698994596221    0.19539266765838
H          -3.55668222023168   -8.19613232120303   -3.55565440348126
H          -3.75419015990108  -13.36827577625621   -1.67356078680671
H          -4.06178033124664  -15.33790664099524   -2.96105083064360
H          -5.60381755868080  -14.91139369886985  -10.38034642290511
H          -6.53417838888305  -16.34214965525575   -9.88647209606224
H          -4.74270373338926  -16.42083340449333   -9.99341128206881
H          -4.89222414933019  -18.61639914693433   -1.88216136310379
H          -6.20753186465048  -18.68809835973919   -3.08332354567434
H          -5.64852895644355  -17.11089782617415   -2.47222255452231
H          -5.78341145628957  -18.30444390566798   -9.29524953958845
H          -6.27884449283277  -20.87843019126292   -9.40590534793073
H          -2.64344282533802  -24.62654618922930   -5.85797675591917
H          -6.20973168192726  -26.21662263818517   -8.94677719600755
