114
 SCF done       -217.237938394798          0.000636550629
C           2.79944628770504   -0.86988721283589    2.44312488859201
O           2.94204034699259   -1.97761679229652    2.91683585031401
C           3.53312631519362    0.33584266378719    2.88553613579189
C           3.12281466321401    1.44796679213621    2.13430516527444
C           3.69256416661342    2.68641055133410    2.38364495114373
C           4.65788654701030    2.78791549635916    3.37893841213941
C           5.05625181081561    1.67472305367427    4.12100054544296
C           4.48999769892102    0.43163569746912    3.87404385514266
Br          6.36976666449114    1.84318914298067    5.46997731865388
Br          5.43560174319161    4.47835567579751    3.71715077467787
C           2.10200906469172    1.01689342123728    1.18038722478111
C           1.43683657520760    1.85871423959090    0.32791177644016
C           1.67299850978486    3.24901435710953    0.25083416511760
N           1.81419886180114    4.38217993971542    0.13669155531922
C           0.41599094753948    1.51098790537304   -0.58395151623465
N          -0.42364050437690    1.34208508919206   -1.34912216211664
C           1.91846438545790   -0.41805092902262    1.34518264902576
C           1.08073140237915   -1.16242397834125    0.55451667467463
C           0.72816879471797   -2.52582109416244    0.57678947252354
C           1.07006390146896   -3.56351432796920    1.41452170232687
C           0.44242035954525   -4.78038212457381    1.10177748405590
C           0.56280046023500   -6.01367480912086    1.78745965070207
C           1.36003769285397   -6.16339057184363    2.98494206411599
C           2.12767127674359   -7.23664082878669    3.34581257118559
C           2.73606211420027   -7.07030224606626    4.60590889559821
C           2.43552487899493   -5.89117405126707    5.22777888296223
S           1.38367225571847   -4.94845718918910    4.23447884532641
C           2.88856538812463   -5.39822644397786    6.55236976951196
Cl          3.76867073124693   -8.26367684018484    5.29364627019443
C          -0.14927922249710   -7.08219018639830    1.25935602764832
C          -0.98529653923694   -6.97925744104792    0.11683677656543
C          -1.12006673056180   -5.74819082029926   -0.55767555515512
C          -0.38762791683784   -4.68035398632260   -0.04998340390081
S          -0.39481398849969   -3.06142501248824   -0.67548162958573
C          -1.99208698761967   -5.57936184460249   -1.70299192399045
C          -1.77015365566863   -4.82519364304456   -2.82085899525455
C          -2.85734929659986   -4.84808681938148   -3.71908835117605
C          -3.91909684500419   -5.59784518919112   -3.30159355926396
S          -3.57461804740558   -6.30728319313631   -1.76337949050915
C          -5.21659499987542   -5.82006528563112   -3.99023490981025
Cl         -2.84468042031008   -4.00576971292771   -5.21994904929352
C          -1.60559072602118   -8.21014082917802   -0.19282341135337
C          -1.31108010537567   -9.22198636788371    0.67355917135048
S          -0.20361921744179   -8.68763423812256    1.92814773437850
C          -1.79389034757338  -10.58015304806999    0.67452057877363
C          -1.44730582808635  -11.44235557612157    1.70195245392389
C          -1.91518355658671  -12.75009903609118    1.76834941233956
C          -2.75074161551301  -13.27266297303042    0.80170025671210
C          -3.12183403541840  -12.42636419288550   -0.27744362448075
C          -2.65025845489512  -11.08668240546705   -0.34820794465244
N          -3.02042378596514  -10.31058225157760   -1.38560434015425
C          -3.81896620527885  -10.78797465868536   -2.30337039659469
C          -4.31494124971965  -12.12000219446836   -2.21329020889326
N          -3.96139649210395  -12.89354662871095   -1.22294799475645
C          -5.24487648830269  -12.68724448460651   -3.23271090861750
C          -4.18934436312014   -9.88568823441053   -3.43281661450322
C          -3.26642727046790  -14.64065298811427    0.90359031950299
C          -3.32594205579123  -15.46989460513412   -0.22879230620456
C          -3.82174638870060  -16.75335579013669   -0.17696081767310
C          -4.27861122754325  -17.21761360166433    1.05107067301216
C          -4.20622246513417  -16.38586596249667    2.19070272337083
C          -3.70250093942709  -15.10458138227539    2.14337359340351
O          -4.71933546804308  -17.08040644244408    3.23595046522868
C          -5.07911261519785  -18.27923950045184    2.70128893688404
N          -4.83993671276522  -18.40759982405036    1.42906481693232
C          -5.68051637350108  -19.26917798200842    3.53401215879652
C          -6.12893678141924  -20.48876557492432    3.11788569094884
C          -6.69771124034592  -21.26691605047769    4.16181455211806
C          -6.64629912842668  -20.55941857028844    5.39283796662276
S          -5.91937405282862  -18.98624811046939    5.23618879444236
C          -7.11069112699847  -21.02207079987653    6.61892138264395
O          -6.93252024195271  -20.13252212491762    7.63564976203443
C          -7.32635041442741  -20.43229181568465    8.95000977998241
C          -7.68346183602597  -22.30310609792448    6.63747513521346
C          -7.73789934001395  -23.00779577120228    5.40858849321588
C          -7.27340407734379  -22.54912386774812    4.18059242839686
O          -7.45091048344836  -23.43188207218921    3.16295840529372
C          -7.07006121587826  -23.12186766937625    1.84579523528045
S          -8.47414873332909  -24.57569214113574    5.57531684371302
C          -8.70558707056131  -24.29356372540849    7.26232048137218
C          -8.25802659512758  -23.09286854802563    7.68427018192013
H           3.41527748196369    3.57014209687435    1.83306723707439
H           4.78806185208107   -0.43885985056848    4.43745230572266
H           0.57921280932607   -0.61866009030786   -0.23735629742517
H           1.76355384214438   -3.43394019872849    2.22341963021444
H           2.29248802091581   -8.09760081082925    2.72540459199849
H           2.07542177091543   -5.44127679271171    7.27727393289299
H           3.22019242517825   -4.36431179959379    6.48074370018120
H           3.70823192939939   -6.01420503562309    6.91328318097925
H          -0.85599916036529   -4.29945223454043   -3.02396499093723
H          -5.85784585359715   -4.94414903791250   -3.88467449719512
H          -5.73179317011781   -6.67749453997504   -3.56566827895272
H          -5.05111892262339   -5.98631289973983   -5.05350241056703
H          -2.25501095931406   -8.37256149645006   -1.03063159460806
H          -0.79329653551373  -11.08376481403223    2.48426081555608
H          -1.60106267662666  -13.37538298245965    2.59062296234618
H          -6.15108744202871  -12.08710219631938   -3.29733415548976
H          -5.50505062571654  -13.70399681594792   -2.95275379043169
H          -4.77351124226858  -12.69144971531674   -4.21463194293125
H          -3.86026086412032  -10.31155426167534   -4.37955778754551
H          -3.72143178583965   -8.91529789110900   -3.29427725372180
H          -5.27023794374129   -9.76242356143213   -3.47854436513502
H          -2.96221686544489  -15.08005696127401   -1.16542499417759
H          -3.86211693984951  -17.38282808780795   -1.05062075653796
H          -3.68259642659887  -14.47939343399187    3.02160289448953
H          -6.03295894774287  -20.77064170079898    2.08806509829044
H          -7.05389609902284  -19.55472096086487    9.53573887527821
H          -6.79262629532317  -21.30329917447659    9.34162009910080
H          -8.40692529392518  -20.58763883698706    9.02123558536655
H          -7.35395631550940  -23.99341180563455    1.25643301272610
H          -5.99008958366040  -22.97006141294010    1.76465705377710
H          -7.60260620492124  -22.24411180869302    1.46919881886166
H          -9.17204480400390  -25.05499866154454    7.85629046705488
H          -8.34031153832751  -22.79077554052444    8.71039318483449
