105
 SCF done       -195.773078880045          0.000877043467
C          -3.33893388385530   -0.01090223803165    1.99292468755729
O          -3.14974881098971   -0.91632772634833    2.79406882051376
C          -3.18581163569454    1.42401878564148    2.30348555879349
C          -3.49579534516153    2.18699827998855    1.16599811524108
C          -3.40683300718803    3.56692658297718    1.22600023145447
C          -3.00977991682943    4.15801067749603    2.42147496645331
C          -2.70755184171247    3.38975017825245    3.54594498492589
C          -2.79571266162050    2.00470214348552    3.49140444518587
Br         -2.17078505341854    4.21506472100507    5.16084762522450
Br         -2.88663721923323    6.04456332503912    2.49542731449320
C          -3.86856587155080    1.27453902860849    0.08345588012459
C          -4.27201294241145    1.67956811122372   -1.16466623334194
C          -4.36490091047394    3.03021049116640   -1.56197755107834
N          -4.46324684549787    4.10691769014648   -1.94820154379872
C          -4.66379317935161    0.84644819481013   -2.23310116688810
N          -5.00051464689187    0.25597084053202   -3.15978823632020
C          -3.74434403476546   -0.07874701806339    0.58692795269172
C          -3.95228072681291   -1.20624878934982   -0.18772303411857
C          -3.85664711344848   -2.56392883377843    0.11587071669461
N          -3.54624447868988   -3.11111396424972    1.34269989815949
C          -3.52447124641134   -4.45082231950029    1.21706793044315
C          -3.29624402181047   -5.63559813888376    1.90829577234336
C          -3.46112557757439   -6.66726059153743    0.97504980664628
N          -3.79226334139625   -6.13589393281949   -0.25432903052962
C          -3.83752545863874   -4.78071281933505   -0.14171920924755
C          -4.05046714967188   -3.60769242935502   -0.82971002352572
C          -3.28997465460038   -8.06516556884637    1.13888872514103
C          -2.96947072517946   -8.66621002408566    2.31070786207103
C          -2.71215086218577  -10.05005176849861    2.45273411071048
S          -2.75631771081290  -11.13355439547525    1.08289045603865
C          -2.35640957572887  -10.72693238067241    3.61469671067991
C          -2.26136727138935  -10.09134030153106    4.94193748123000
O          -2.44969172141131   -8.90325779849136    5.15195157458478
C          -1.92378118633145  -11.04207476676448    5.99061888635127
C          -1.79827959363069  -10.84512269841560    7.34869699282025
N          -1.49241418359673  -12.02911130493769    7.93208375266963
C          -1.22924679238192  -12.23116589458945    9.33440521729500
C           0.26837976722362  -12.16293631512436    9.62650229303106
C          -1.40090492502440  -12.99086211621550    6.98396208352024
C          -1.66686359323656  -12.42299532851187    5.75737805757304
C          -1.71325757128465  -13.04580792526132    4.45025496651320
O          -1.46849982948790  -14.23192051415157    4.26774205869997
C          -2.09372923564930  -12.10722685066553    3.38755683361933
C          -2.25682837044523  -12.48196465922817    2.05931935913440
C          -2.03402404939548  -13.77006068110086    1.50601671147437
C          -2.44901927533116  -14.15966502339700    0.28255570594256
C          -2.23415101300848  -15.44257727671828   -0.30218414568071
C          -1.34477392164799  -16.44662602894274    0.00418933126341
C          -1.43681512638284  -17.54965557744637   -0.90545585160452
C          -0.70057711394676  -18.73300963895656   -0.89629333812370
C          -0.97341209023890  -19.70039543088361   -1.85141931729719
C          -1.98039658310519  -19.50764261457479   -2.81431373184638
C          -2.71536347534964  -18.34511390354920   -2.82935675694172
C          -2.44091120994516  -17.37048783701306   -1.87832564666248
S          -3.21723282747642  -15.83786866029206   -1.70358724268416
C          -0.23139841108123  -20.90417615285585   -1.85892766186894
N           0.37031417880910  -21.87976773219097   -1.86935907354749
C          -0.26644399456652  -16.43439167859241    0.98207606955092
C          -0.22379444251960  -16.61424842796957    2.31245564608517
C           1.11251025228648  -16.46347899449599    2.98091244256097
O           2.16963995696630  -16.31236026829644    2.41273040688994
C           0.84108827904200  -16.51406756223759    4.41849620006314
C          -0.52928591218806  -16.73972175299582    4.63502434598501
C          -1.00037488927313  -16.80501787888724    5.93698870647870
C          -0.12032575900245  -16.64470525630145    7.00200401341091
C           1.24796271824137  -16.42167760232035    6.77490087748041
C           1.72181838675014  -16.35632593157234    5.47085859286700
C           2.19367480747342  -16.25967246460002    7.92271540698690
C          -0.64296128425619  -16.72542033913279    8.40340159824061
C          -1.21731294533101  -16.86026468360014    3.35423692463404
C          -2.52844803433091  -17.20084860322186    3.18763574088521
C          -3.17138568010413  -17.47832278995998    1.96410581635663
N          -3.77432779978187  -17.78362707820948    1.03622937348813
C          -3.43634828634901  -17.38185140593642    4.25524320246125
N          -4.23004621596142  -17.52958996863849    5.07076410694483
H          -3.63066884452178    4.19658945375962    0.38067944670167
H          -2.56303760656790    1.39760621438651    4.35244567441925
H          -4.22005079978098   -1.02764414217337   -1.22008459395371
H          -3.35258372140974   -2.52889314132309    2.15922577457160
H          -3.03645248721851   -5.75889898279224    2.93919562503774
H          -3.96167381336044   -6.67717694840632   -1.08464276437112
H          -4.30340769076426   -3.46287175683224   -1.86089253492467
H          -3.40470089703789   -8.67488636899321    0.24946023800586
H          -2.87103689544757   -8.08705970317431    3.21722901021593
H          -1.91960959873214   -9.94450651618703    7.91710786638764
H          -1.62410959239190  -13.20902503068516    9.62454204691735
H          -1.75666190416986  -11.46091327520184    9.90177680084767
H           0.80233764244119  -12.90853421352562    9.04158773536610
H           0.45130924908743  -12.34594445656132   10.68156281369057
H           0.66012179697173  -11.18197892137597    9.36932587904557
H          -1.16981888540566  -14.01083759157769    7.21826931529260
H          -1.51735204794475  -14.45601293056069    2.15724611485469
H          -3.03188639707272  -13.47080017760867   -0.31820520179976
H           0.06867165771684  -18.89482424287401   -0.15553162181180
H          -2.17018426859793  -20.28499553793898   -3.53867694646854
H          -3.49349696778825  -18.18847963231266   -3.55944072649920
H           0.71923449118555  -16.30820093763973    0.53015593146311
H          -2.04670260786414  -16.96331394078393    6.14095091151673
H           2.76837941250025  -16.18346282388892    5.26838568482499
H           1.92130246235003  -15.39841721890986    8.53288254652611
H           3.21005752780569  -16.11975723589049    7.56523246544050
H           2.16854981745940  -17.13831350488484    8.56625404436118
H          -1.72740994923725  -16.79855450881934    8.40744384730928
H          -0.34360760050243  -15.85487906275736    8.98660358433321
H          -0.23797476437235  -17.60485325737753    8.90420647918780
