114
 SCF done       -194.854070275473          0.000288991726
C           0.51093337650315    3.36632903715760    3.83848027218309
C          -0.67128019806538    4.05760074019631    3.65799680395629
C          -1.94502591982515    3.52417078225718    3.89937292541176
N          -3.02335368704158    3.12033261924845    3.93752224907457
C          -0.72304795639685    5.39003485851804    3.23303847252044
N          -0.80222242618211    6.48471434975056    2.88713918721173
C           0.64478332522978    2.19902086274935    4.70541286977251
C           2.03076902228806    1.97579275768522    4.94588467399977
C           2.46068081788143    1.00887830107429    5.80606381542700
C           1.50754990069132    0.20096131599899    6.46986917594257
C           0.12183072829135    0.40302324747340    6.21384716816380
C          -0.29342433341007    1.41828036072290    5.32039306286988
C          -0.81703961865823   -0.40892151734579    6.87887946382641
C          -0.41122231687969   -1.36633443187051    7.76803512797541
C           0.95266411880491   -1.56022406724503    8.02504993749007
C           1.89183296010573   -0.79590723612147    7.38660741559825
C           2.81233870205917    2.94674753510424    4.15587121217807
O           4.02068596125675    3.06195527116903    4.10648334003440
C           1.81611380082871    3.74240701362048    3.39540737653097
C           2.28313910297569    4.58815750292605    2.40787348775536
C           1.64989807857098    5.27124905414158    1.36703888476557
C           0.40523476278213    4.97492402231128    0.81137172807884
C          -0.13313943999770    5.95477753423743   -0.07577149714545
O          -1.36425828247272    5.79506909383920   -0.62897040121063
C          -2.16253604344387    4.82701335650730    0.02033359743392
C          -1.35693589804593    3.55400189935864    0.24578954529716
O          -0.23747643042357    3.81947390795861    1.07055517050710
C           0.68219513474629    7.04166528054729   -0.36906898253805
Si          2.34139708478870    6.76518081401631    0.46521917702899
C           2.80583960796232    8.16985614811417    1.61054608757167
C           3.72164339741820    6.31334646158428   -0.72214966994528
C           0.25078315485399    8.23066341709504   -0.97995574680014
C          -1.00643444468321    8.79715616210462   -0.89011105768788
C          -1.39479427172896   10.06876344061211   -1.37511112181736
C          -2.61375952660130   10.49936996598043   -0.92777455405423
C          -3.23535769419426    9.59285792495857   -0.05022438891734
S          -2.27753940476715    8.14166615459701    0.10969290453703
C          -4.38922865230877    9.71662556146367    0.71459706074501
C          -5.31700019962397   10.76540122876065    0.83344834947168
C          -6.27301184247630   10.54529998919445    1.79036437479351
C          -6.13370073351475    9.32518419078506    2.48537545376859
S          -4.78974541089355    8.42916781076918    1.82716175647940
C          -6.88643340109083    8.86650670493020    3.55051536848425
C          -6.60403665360173    7.73251462445947    4.31788479388860
C          -7.47746306253069    7.32197832034314    5.32834514194225
C          -7.06700838724985    6.21081547398342    6.12858381513063
O          -7.92490713511376    5.56351248049050    6.93078756595980
C          -9.25535143288737    6.03395291799170    6.88283949650310
C          -9.26418819851620    7.55469995924238    6.77736980132927
O          -8.65666927622583    7.95302579847939    5.56357827204496
C          -5.75608318573406    5.79312812481682    5.92242295490729
Si         -5.11184508640093    6.58058624724231    4.34050191910056
C          -5.18287166476850    5.29196592522067    2.97953337139258
C          -3.43948607013512    7.35505529758604    4.65441416889230
C          -4.97787564234079    4.93492933929636    6.69771960515121
C          -5.05511196901177    4.61917453042356    8.03912639586355
C          -4.19200326902146    3.66536798111727    8.68847946926914
C          -2.95630253466714    3.23414584518456    8.25477587246054
C          -2.20177723744952    2.23337839494004    8.89277819170411
N          -1.55250658537655    1.39990057394624    9.34671870553964
C          -2.23214459253257    3.81907677943664    7.20295210413895
N          -1.53832271466574    4.29978861968252    6.42036926973293
C          -4.79355994538742    3.32490742930254    9.97463511780228
C          -5.87076627234391    4.22639399715533   10.20692844629182
C          -6.00303094399213    5.13208975300918    9.04167892892035
O          -6.69593031581205    6.13117751490272    8.98907798691702
C          -6.59913299570563    4.19017013123080   11.35782198251213
C          -6.29282612679344    3.21761603350750   12.33934936599185
C          -5.22617966875439    2.30451151639034   12.10628905781136
C          -4.47617776425008    2.37740024488071   10.90819785026619
C          -4.93005023420212    1.34132781232167   13.09097884348803
C          -5.64961479590720    1.28210844192174   14.25362497657697
C          -6.69908930486586    2.18271715822125   14.48301667199640
C          -7.01377338515268    3.12914300514326   13.54526676417934
H           3.51533747909604    0.86640601226418    5.99118243540846
H          -1.34973293345831    1.55591484417257    5.14934553678827
H          -1.86760068123300   -0.25321013123422    6.68034557963057
H          -1.14055075028609   -1.97399016445958    8.28208488752453
H           1.25726166242403   -2.31697941038940    8.73296989502425
H           2.94487004392522   -0.94169649338449    7.58086793492339
H           3.35789205460196    4.74188733303922    2.46601276478901
H          -2.50839357423609    5.22194218791398    0.98485721504194
H          -3.01791234831307    4.64485431262786   -0.63129068985328
H          -1.01108156053836    3.15709258505186   -0.71808908820768
H          -1.94789728102197    2.79729645381960    0.76499635452435
H           1.99792796513498    8.39802599317179    2.30405703516715
H           3.03425251526229    9.08619475746580    1.06954638731276
H           3.68211041992610    7.92988577210370    2.20997363654909
H           3.43695290406081    5.51577914761046   -1.40598256581083
H           4.60733752681617    5.97426036029571   -0.18884444335099
H           4.02588311896399    7.16293835489920   -1.33007064867072
H           1.01534740587794    8.84500825397786   -1.43987580156366
H          -0.75420093353592   10.63789628774845   -2.02628914625304
H          -3.05700604981355   11.44439254297501   -1.18747656694848
H          -5.25774885693720   11.65317867730604    0.22918095140426
H          -7.05570486777589   11.24306716456554    2.03232456558688
H          -7.75084354279563    9.45880481116530    3.82621489080249
H          -9.76794160688862    5.60001874689986    6.01248375076001
H          -9.73550795150907    5.69451793759444    7.80164924130158
H          -8.70756684639849    7.96979786924670    7.62763660004141
H         -10.27973134169298    7.95209083698829    6.76162081368414
H          -6.19467303807901    4.92441257520956    2.81351008368366
H          -4.56937129831998    4.42920233016088    3.23763091682868
H          -4.81751014178254    5.67212931639734    2.02904892580769
H          -3.51278799158874    8.29441373405200    5.20122347413098
H          -2.88088639410717    7.55466536930090    3.74312968120294
H          -2.81769051842688    6.68977318174473    5.25325737366473
H          -4.14607843393784    4.49787947090269    6.15690256783295
H          -7.40278722215036    4.89261609713949   11.52388065985488
H          -3.66939172056891    1.67678348476979   10.75924959187033
H          -4.11817864951512    0.65177849928344   12.91009837683766
H          -5.41253644577418    0.54156289613516   15.00315857311349
H          -7.25695311011040    2.12422387641005   15.40601215311664
H          -7.82148545880699    3.82607442615436   13.71768911164492
