132
 SCF done       -237.439892729915          0.000906264248
C           0.72110983018532    0.56092581354346   -0.57643972152898
C          -0.59361407828073    0.96076074402240   -0.60013102038236
C          -1.64364277168901    0.17859195928549   -1.11894310907620
N          -2.53712995203351   -0.39715468499716   -1.55497932458410
C          -1.07144079702366    2.16544848811199   -0.05171535163986
N          -1.52603281921788    3.12192054530034    0.39346729062562
C           1.18512222842116   -0.78389241651326   -0.91355183320428
C           2.47782623371841   -0.97189952319876   -0.34469676719800
C           3.15443895805356   -2.14960891034729   -0.47050758033859
C           2.56329560852684   -3.20982011026457   -1.19522370291330
C           1.27797591188282   -3.02367712424280   -1.77971647874199
C           0.59684433199563   -1.79341816682401   -1.62521008332464
C           0.70281468323316   -4.08528658734027   -2.50658048390334
C           1.36270893056824   -5.27561137257604   -2.64860440860137
C           2.62817162404242   -5.45818545360344   -2.07219838510790
C           3.21525101909759   -4.44730522271491   -1.36046643691508
C           2.89652945844303    0.27432220695472    0.32330313267118
O           3.90905423877522    0.47560343779426    0.95710440085495
C           1.83477336001989    1.26635971661368    0.00713380721329
C           2.10011501630035    2.58984115528656    0.22959805790012
C           1.48907324343758    3.73379342453697   -0.30981181308091
C           0.66179043126622    3.87622903659038   -1.42059926369744
C           0.27922926482714    5.18107665271308   -1.66603232132201
C           0.81338959548575    6.07012915819090   -0.73054935785955
S           1.81981020222001    5.29322616424693    0.41858843255718
C           0.46371543330103    7.43374459824909   -0.85478746680456
C          -0.41244821869375    7.79153666900475   -1.87537125723119
Ge         -0.93208408849160    6.16478251966212   -2.86580910905757
C          -0.34873108532238    6.18780511789022   -4.76348318924198
C          -2.81889802126718    5.63111491088204   -2.59235155125345
C          -0.65069970809682    9.16161846701483   -1.90242706806856
C           0.03166031585445    9.85609230401134   -0.91906600737126
S           0.98384534381038    8.78842520600985    0.07350112407849
C           0.05170122856736   11.26141157855482   -0.69455166224233
C          -0.59069298491073   12.23511119331740   -1.40766293260023
C          -0.31231224130277   13.54818812944215   -0.96014256276795
C          -0.81795404751392   14.76599624262527   -1.46031320544650
C          -1.71038329202414   14.84148578951075   -2.59917908883158
C          -2.75708934365153   15.69941597503389   -2.78103497715664
C          -3.37867872712127   15.54827409793397   -4.03956347151615
C          -2.81829889167252   14.59399735480861   -4.83669403769430
S          -1.49072670369583   13.84559316142780   -4.01443502768387
C          -3.20596060193089   14.17833787716496   -6.20824372549996
Cl         -4.73253893009179   16.50060188609906   -4.51332525730215
C          -0.39656611129192   15.92403658884103   -0.81413701595938
C           0.48267832057785   15.92560757403720    0.29706296827364
C           0.96434124061229   14.70673180056012    0.81638037774186
C           0.56401290691506   13.55119694871869    0.15446642084485
S           1.02567871802168   11.93202778170080    0.59586024797553
C           1.81509604939817   14.63884551279636    1.98686455467180
C           2.85758661808954   13.79004271662523    2.22472575554467
C           3.41345921703615   13.95267904740875    3.51240749492921
C           2.80664891557822   14.90699053537171    4.27502208335428
S           1.51700876169740   15.64154029021248    3.38344053272607
C           3.11516600727479   15.32459958276151    5.66599096100704
Cl          4.74871547321069   13.01356093463743    4.06019121639068
C           0.82204458080022   17.23755143102634    0.70170450531811
C           0.23221624650632   18.21625195401535   -0.04914785699769
S          -0.79986553441416   17.54864902259916   -1.29567331634324
C           0.39452828093366   19.62444151727577    0.07863416093906
C           1.18233337069227   20.30232690567710    0.99314727293963
C           1.14940617857259   21.68243405170657    0.83076875475495
C           0.32150841589357   22.06764624539840   -0.22070341038149
S          -0.41538745700715   20.72093556758140   -1.00442406888058
C           0.20704928747619   23.44561182457626   -0.51358061017405
C           0.95104934398084   24.32650060827445    0.28693455772056
Ge          1.95547920661376   23.29488930632399    1.63059171443354
C           1.37434653923842   23.62466638798120    3.49838312253592
C           3.92270645744346   23.38164601219241    1.39116980596321
C           0.77101997814826   25.63203390395402   -0.10734026224757
C          -0.10030357180887   25.78611175790689   -1.19613028771485
S          -0.71091178543510   24.23222233374083   -1.72939143279430
C          -0.38398619662572   27.04104987805093   -1.74532445005177
C          -1.20038457343555   27.39474223648275   -2.79290489329892
C          -1.40334330451877   28.73881943826456   -3.29161360130141
C          -0.79707240463661   29.89220972772038   -2.85738131396227
C          -1.04597063415767   31.16880813538162   -3.40134511469777
N          -1.19706764670930   32.23818780123813   -3.79271435049535
C           0.15687889432573   29.98834815001883   -1.82481324974027
N           0.93969580917568   30.15788909542560   -0.99981831991932
C          -2.37894133360077   28.66344774645495   -4.37657315278191
C          -2.75828151400699   27.30197770364309   -4.54996085140321
C          -2.02854280875070   26.47296601976030   -3.57728589342552
O          -2.11030344194425   25.26197089968759   -3.45630032903109
C          -3.66417243732125   26.91606010417373   -5.49388995486116
C          -4.24660268944725   27.89646319709193   -6.32908187639691
C          -3.87196336067828   29.26056114427607   -6.16541041917065
C          -2.92963891095728   29.62851532722350   -5.17627847735459
C          -4.45734062651274   30.23011081882205   -7.00417596583354
C          -5.37040213509118   29.87162956161617   -7.95864143179736
C          -5.73970669413405   28.52811171735175   -8.11776966060292
C          -5.18922816206865   27.56134672995645   -7.32029376103316
H           4.12996171893997   -2.27274722216928   -0.02398631060582
H          -0.37167413587686   -1.67818451398766   -2.08638103567957
H          -0.27341260729527   -3.94093846064676   -2.94601949828621
H           0.91238149474418   -6.08349234096298   -3.20583089110356
H           3.13572887978106   -6.40336292802509   -2.19477272617608
H           4.18980177233099   -4.58193909903991   -0.91416498448783
H           2.96227285873671    2.76918032433053    0.86588728514520
H           0.39106544723205    3.04899232340559   -2.05348332468967
H           0.69387171571698    6.48119368098345   -4.83640357272741
H          -0.94970328331175    6.89188161450361   -5.33051247659283
H          -0.46669771737551    5.20176064556426   -5.20232218552329
H          -3.01855258680324    5.52457216947666   -1.53064634598531
H          -3.00857211138958    4.67776626326693   -3.07597174629380
H          -3.49370779143933    6.37301392330137   -3.00801809630546
H          -1.29338176436739    9.64429334995462   -2.61678950514219
H          -1.24623592446491   12.01429740646653   -2.22801535506225
H          -3.10458421312385   16.39392731393135   -2.03925294058407
H          -4.07570288867314   14.74632080599245   -6.52862982272431
H          -3.44590618517164   13.11593079822379   -6.23558374860539
H          -2.39014927379734   14.35601352190387   -6.90854192721880
H           3.24743070314926   13.09458631901192    1.50529359926501
H           4.04208052918788   14.85814297613798    5.99023123342313
H           2.31578773902747   15.02227437372961    6.34293264753905
H           3.21709617433905   16.40681264694724    5.72999171387671
H           1.50073795582111   17.45182158754474    1.50489624414098
H           1.76142023045606   19.80151651631541    1.74823965197993
H           0.29365610069999   23.55946538155558    3.57538711061179
H           1.68782572034846   24.61395420564518    3.81709226914559
H           1.81708237199081   22.89046025216066    4.16442911504572
H           4.18552873783911   23.18579669515055    0.35640765780343
H           4.41165252233341   22.64508544367931    2.02127696870629
H           4.28870378142174   24.36679679477221    1.66315148539068
H           1.24695419036109   26.47856947532521    0.35802719133864
H           0.13942774837949   27.84668188443684   -1.24453642913180
H          -3.93378604580930   25.87597457112785   -5.60289777051318
H          -2.67024772094732   30.67052041490178   -5.07840247324804
H          -4.16977366401461   31.26366624688049   -6.87768558696191
H          -5.81311192023325   30.62228579668747   -8.59624464093139
H          -6.46236657974540   28.26249248876974   -8.87502635015747
H          -5.46949308389855   26.52465088651176   -7.43810272154279
