90
 SCF done       -155.920215756056          0.000768450328
C           0.86931632747382    1.90906518518957   -0.79027509553192
C           0.06667066903937    2.55497695994327   -1.69821922921943
C          -1.06215857592975    1.96720204953171   -2.30341323975051
N          -1.99473480106512    1.53997295381498   -2.81949170289453
C           0.32050595490477    3.84678218297711   -2.19519504705652
N           0.49236223723977    4.88969280129530   -2.64423187577451
C           0.74994464997685    0.49555996380879   -0.43698258854656
C           1.98591273766801    0.06239010366360    0.12428356480450
C           2.18496394368603   -1.22973335255895    0.51519245633027
C           1.13303811718832   -2.16258630352072    0.37075378880878
C          -0.11302838762320   -1.73112517426638   -0.16806968774135
C          -0.28783321693955   -0.38625587376383   -0.57032425675220
C          -1.15721621620058   -2.66886077504139   -0.29767012588461
C          -0.97950331983314   -3.97189323312963    0.08050611476368
C           0.24875087369369   -4.39641104843088    0.60826065879564
C           1.28233691437078   -3.51078327044190    0.75065720002490
C           2.90736925014436    1.20892437753435    0.20086144552175
O           4.06098350017169    1.21618699962336    0.56945568125723
C           2.10632133172724    2.39276457126664   -0.22296304363388
C           2.61820623550278    3.63466323149811    0.03022134256062
C           1.99936144259661    4.90260442456091    0.09614212606353
C           0.67253117731037    5.12636419711245    0.31878340884998
C           0.04306227710569    6.39066656975501    0.43554163084472
C           0.63099031932791    7.58533612044421    0.15240000855671
C           0.04035676948614    8.87265024809775    0.25551621333342
C          -1.25332823740409    9.13957429480940    0.65613326110914
C          -1.80098499481795   10.40956180015378    0.78182304687472
C          -1.01333766329414   11.61304616826357    0.50450505614248
C           0.27053817145675   11.60003250798788    0.07939471889001
S           1.16010733832287   10.16200112754160   -0.17861864243915
C          -1.88188659331576   12.70279438123534    0.77595892195341
C          -3.12936109148545   12.23253521465026    1.19782785549856
C          -4.02526361507127   13.29885136658284    1.44412386262683
C          -3.44670268398532   14.50747277539128    1.22083622641968
S          -1.80040125757835   14.41575729889086    0.69824531371235
C          -3.09966004873287   10.79089317478315    1.20689155405337
C          -4.13253452065534    9.89324629352369    1.53406067465817
C          -5.32568879347342   10.22049804790510    2.11766144776673
C          -6.38401033690459    9.32792442453142    2.38719818984551
C          -6.48226642029256    8.02408632005775    1.98099815192237
C          -7.60397061725643    7.22365911749571    2.25235844553130
C          -7.74762705947760    5.94096919946944    1.79422114655175
C          -8.90600941967162    5.18837194611429    2.04290904880371
C          -9.14282748907488    3.92159419875679    1.56772658462739
C         -10.33928713162102    3.13525728209635    1.76874382433590
C         -11.41976952151856    3.45335275161875    2.55639590228406
C         -12.55455838120274    2.63225891362313    2.71246123427551
N         -13.50851403010271    2.01604397206902    2.88632460395191
C         -11.55939341764385    4.62081796388868    3.33264280639534
N         -11.75482363546906    5.53853550170651    3.99629833437949
C         -10.20165619809941    1.90710146460281    0.99019988589825
C          -8.92705991557945    1.91225176865103    0.35607438900719
C          -8.21145358909977    3.15267164531639    0.70912675020547
O          -7.08881190126939    3.46092679571675    0.35981069786526
C          -8.51572372703577    0.88954815211337   -0.44793926849596
C          -9.37984328297738   -0.20816195002452   -0.66300604831545
C         -10.65729809457531   -0.22093647663729   -0.03385494917022
C         -11.05408334929079    0.85320644892818    0.79640533829898
C         -11.51316956504805   -1.31844829020022   -0.25700740516508
C         -11.12775332248497   -2.35463961375399   -1.06334133856191
C          -9.86957792786339   -2.34076124390623   -1.68297037297877
C          -9.01412293905607   -1.29054932163190   -1.48672517255726
H           3.13325364132126   -1.53806317947443    0.92973000020111
H          -1.24544648611363   -0.08578297568304   -0.96586429364580
H          -2.10021663027225   -2.33800090205209   -0.70757874649426
H          -1.78485012627974   -4.68330262494132   -0.02571474259983
H           0.37199328257130   -5.42821784473988    0.90172429376754
H           2.23047667604658   -3.83148982163703    1.15704628601125
H           3.67433986414315    3.61631211291162    0.28820254398478
H           2.67330769177333    5.74675975726487    0.05814128995707
H           0.03287362619319    4.26836492630518    0.48328670178011
H          -0.98966526949975    6.37059286037456    0.75382103982608
H           1.65498468724941    7.58559674433208   -0.19504343031972
H          -1.87473619196944    8.28868769217434    0.89387044469231
H           0.82333147737279   12.50340303841379   -0.12464957173791
H          -5.04819280177349   13.20118151204820    1.75672642394125
H          -3.89342980008128   15.47641822840254    1.32984073363879
H          -3.94116591369826    8.85287581748983    1.31036705967993
H          -5.47927947172894   11.24382711897008    2.42518718370278
H          -7.21811324241331    9.73405168222346    2.94694474501804
H          -5.69113278346785    7.57604923845697    1.39611100726462
H          -8.40335038387720    7.65915415850391    2.84093303574750
H          -6.96143325749100    5.49142648245166    1.20546750005862
H          -9.67382880919216    5.66747890851070    2.63730256173946
H          -7.54391846097873    0.91899146217454   -0.91830356482195
H         -12.02930660314365    0.81347813066935    1.25471722355035
H         -12.48125679752975   -1.32382220328536    0.22230353447035
H         -11.79104176638579   -3.19068233283283   -1.22835959254603
H          -9.58174527954590   -3.16621280578699   -2.31706601340559
H          -8.04418582055338   -1.27379451211822   -1.96209747840134
