104
 SCF done       -200.455464241774          0.000289240149
C           2.31400475123880    0.69810712446782    1.12240852362622
C           1.61894963794428   -0.46388239595325    1.32313771021600
C           2.22113286167830   -1.70006538749074    1.63966415802143
N           2.65330593626728   -2.73271903775431    1.89379246792202
C           0.21285589180322   -0.58369977329306    1.28639116817485
N          -0.92160574320456   -0.75839860790297    1.30446013187975
C           3.75304659438091    0.86754102784431    1.26949069944455
C           4.06413565995276    2.25077731064183    1.13724838289385
C           5.34482409834664    2.71297558620414    1.23749676642486
C           6.39208039622320    1.79765720732417    1.48524427917282
C           6.08943855176036    0.41110752123135    1.61232293623668
C           4.75472973192722   -0.03935381920364    1.49835417681309
C           7.14297427468602   -0.49477109631366    1.85227320016521
C           8.43342333784813   -0.05416429283351    1.96372643587953
C           8.73030253012355    1.31141831391239    1.83904378882213
C           7.73157257098984    2.21731174293475    1.60543567992725
C           2.83395256361976    3.01471300088729    0.86061468402882
O           2.76412254443920    4.19533967607592    0.60255057768732
C           1.73798358797337    2.00237959987618    0.83381332206436
C           0.46936920093199    2.24620769071214    0.42429148189166
C          -0.12366126755739    3.55057956467608    0.30876309991270
C          -1.02859574284600    3.85878908675002   -0.69694529430580
F          -1.32876800547669    2.91787446124876   -1.60696681467975
C          -1.61840466246180    5.12513462501946   -0.85266489215061
F          -2.49840377284131    5.25930219388410   -1.85585098196260
C          -1.37374497001294    6.17705869753864    0.01350154438575
C          -0.52519632932138    5.86726420586340    1.09627657923352
C           0.09260389971033    4.58861304137985    1.24116503619228
N           0.79751933199782    4.61117461672850    2.37858290397424
N           0.62310304980650    5.81717700999528    2.83979028781944
N          -0.13916663388449    6.61202477686070    2.14450867150690
C           1.24960814333474    6.25466539166908    4.04837914448378
C          -1.93161660273916    7.51404581499630   -0.15966775274582
C          -2.45537319899869    8.21509207601272    0.90743401336844
C          -3.03138590089901    9.47274777881394    0.73733590433385
C          -3.09965008276828   10.06925140938239   -0.50483100638651
C          -2.49558386898374    9.41374682008192   -1.60885734381928
C          -1.91314789143124    8.13230894645920   -1.43706537830881
N          -1.29534779363029    7.52908116820561   -2.47075102196869
C          -1.29025586824789    8.11507499337477   -3.63734674399411
C          -1.87357263847032    9.40728366907236   -3.80946135387129
N          -2.42680174703589   10.03051342936108   -2.80449842280246
C          -1.84210515723980   10.11146925260328   -5.12301337477156
C          -0.62104847891307    7.40280603984866   -4.76285885140427
C          -3.73979981225103   11.36835356364165   -0.68744232519645
C          -4.59111325050263   11.66924535327208   -1.73509364344827
F          -4.96051467939217   10.71813098986254   -2.60369503663670
C          -5.15600166463581   12.94552509297498   -1.92847375308412
F          -5.88598689044865   13.12107707759875   -3.03772905618654
C          -4.91477398925062   14.01846995384661   -1.08548718641077
C          -4.03969396759874   13.73690698406848   -0.01361330571398
C          -3.48702217219767   12.43861374206792    0.19552137671454
N          -2.71979598499809   12.50946612085649    1.29470889529305
N          -2.82731137037881   13.74834839127506    1.68495553775513
N          -3.58878111051213   14.52870599841354    0.96791388205851
C          -2.15367904136807   14.22585848202687    2.85276220587155
C          -5.42260770140988   15.35237758086132   -1.28039166999180
C          -6.67740823212314   15.66469084172638   -1.67964106843833
C          -7.18139189237993   16.98234712311325   -2.03826945229787
C          -6.44479379255335   18.12986486364556   -2.16102299347288
C          -6.98308453842255   19.38115849413509   -2.53034982009978
N          -7.35503558812814   20.42854905713513   -2.81764257124452
C          -5.05442323793460   18.23819080651976   -1.94507750160673
N          -3.92904953198858   18.41533094212869   -1.80039221478402
C          -8.60707487634305   16.85272246473028   -2.30843928121989
C          -8.99432161509453   15.49758886912529   -2.10211618681750
C          -7.82781523296725   14.70989225014450   -1.67048821777301
O          -7.82434167252750   13.56410071082498   -1.28336659671538
C         -10.27887993813415   15.07676067981662   -2.29267663701291
C         -11.25330125370412   16.00738511978310   -2.71694890120418
C         -10.87599144981446   17.36631085708602   -2.92120452465962
C          -9.54019637953276   17.77437640232881   -2.70782742504240
C         -11.85716121502307   18.28782884665180   -3.34155593761387
C         -13.14803281077984   17.88754570081470   -3.55368709644425
C         -13.51792361039088   16.54879848211489   -3.35434319800948
C         -12.59104370410956   15.62902433731247   -2.94486735693808
H           5.55651221097956    3.76654391824161    1.12954669176359
H           4.55871119893766   -1.09601748733800    1.58853965261069
H           6.90905590613962   -1.54489976636848    1.94806989102390
H           9.23327733840986   -0.75555019524211    2.14819090052954
H           9.75449223265177    1.64158478909364    1.92838330294306
H           7.95465881569190    3.26979096707662    1.50749464022886
H          -0.16764075393386    1.41978048943963    0.13220196299988
H           1.02324585066569    5.55597718918074    4.85345557276291
H           0.87118691325987    7.24633476020345    4.28413046818634
H           2.33087435049463    6.29097302594543    3.90968241294980
H          -2.44363774259907    7.76447827327125    1.88733797679856
H          -3.45981299759034    9.98002852465735    1.58744916149838
H          -0.81523296543881   10.26068667309069   -5.45391790116154
H          -2.33493194496861   11.07441515285308   -5.02590629116095
H          -2.35711797361692    9.51885378119191   -5.87740862109515
H          -0.23331972227043    6.45305122516742   -4.40632667384048
H           0.19565518991425    8.00122632496156   -5.16410157738293
H          -1.33311307652681    7.22137773896351   -5.56647176552323
H          -1.35331632208525   13.53013474581360    3.09343292995935
H          -2.85086151408805   14.28638543145195    3.69047649724463
H          -1.75622125683820   15.21976375468617    2.65425896707303
H          -4.71403647745977   16.13621208245358   -1.04576423576669
H         -10.54553280765525   14.04310037363469   -2.12976690547471
H          -9.28787243901825   18.81067758045931   -2.86718970542579
H         -11.56689562733703   19.31692665050943   -3.49483956631848
H         -13.89184052700745   18.60023408465364   -3.87716991252971
H         -14.54114548481422   16.25031540427780   -3.52707927375204
H         -12.87003095689852   14.59705786640904   -2.78997606215965
