101
 SCF done       -204.435046427287          0.000768720967
C           2.89923144090467    3.69353150343091   -2.99366356861151
C           3.54895225897201    4.64661147421340   -2.25642333468000
C           4.68227712224451    5.34700918269162   -2.71463287333523
N           5.59906488380150    5.94680715296568   -3.05642204456545
C           3.18263949038101    4.94652867958194   -0.92871824530323
N           2.92001282470780    5.17032437213240    0.16690871823922
C           3.36378198062318    3.10191712563959   -4.23995728479859
C           2.77243790400220    1.80962549111961   -4.37125855251939
C           3.05466460745562    0.99962805777552   -5.43379964728612
C           3.94326426582978    1.45820534099422   -6.43221815511111
C           4.52144257178030    2.75600137929077   -6.31466114336214
C           4.21951515793792    3.57028935016204   -5.19871024887849
C           5.39738521086455    3.20229365621055   -7.32473550363520
C           5.69327499742175    2.40602958456598   -8.39764613322166
C           5.12644480135907    1.12773615018825   -8.51090703941956
C           4.27044641893339    0.66397649761048   -7.54911986241825
C           1.86391087602957    1.56700498309919   -3.23736570205034
O           1.23923675999926    0.56751314599021   -2.97077505029521
C           1.80457980756728    2.87555723379664   -2.51473638027947
C           0.75075591913794    3.14933874926440   -1.70450347412079
C           0.19452797818524    4.40816013140692   -1.33125369781755
C          -0.66056511302872    4.50499974147700   -0.27780267854270
C          -1.34188681831830    5.69998167404061    0.05792674919128
C          -1.38874648675515    6.77151074497711   -0.77897973548686
C          -0.71806166837123    6.64900303099262   -2.12938566601802
C           0.47028550272694    5.66633587515803   -2.13844387545443
N           0.85146960705067    5.31117081443832   -3.48650898923232
C          -0.04599493865930    5.26622104585868   -4.36742613428246
C          -1.44592848763317    5.64804068467617   -4.09195791078858
N          -1.76946413524905    6.28989130208838   -3.05953448440177
F          -2.37690706536718    5.28639635251631   -4.96311891744035
F           0.27622588353619    4.89878992853760   -5.60093664820506
C          -2.21507870211838    7.90205796200274   -0.48988391135411
S          -3.52520711274998    7.67256441952436    0.63612769138657
C          -4.06851446571988    9.30781257434787    0.47058902597935
C          -3.24415269376175    9.99857806916747   -0.41403513682062
C          -2.21379528257028    9.21481484359947   -0.95757779281257
S          -0.95808334866677    9.83955836253600   -2.02468631608512
C          -1.22132654182641   11.55937485577443   -2.36333299698991
O          -0.38841892511327   12.09361414646349   -3.03841467654153
C          -2.41711807761677   12.34248648105635   -1.87510998926775
O          -2.57234711796683   13.47570462305269   -2.23558597102999
S          -3.60989048456286   11.68543487354717   -0.75396178829263
C          -5.21023326353907    9.81345562029666    1.13561211850795
C          -6.02076022289638    9.05843231516783    1.91877206557150
C          -7.21921405742889    9.49506230937211    2.54587440778679
C          -8.08189797386335    8.59872231140347    3.10113622439998
C          -9.36015485766126    8.96528502123240    3.58811326740922
C          -9.73735182666392   10.26342405422242    3.72564208248208
C          -8.70771918999142   11.35545557555130    3.48901014819569
C          -7.60514029055482   10.96012135876162    2.47896252923940
N          -7.94289228552752   11.22560351953899    1.09628716562588
C          -8.81964809450710   12.08697059273966    0.83692081386708
C          -9.50811133602435   12.85334667790279    1.89416767462223
N          -9.42174963424693   12.55412620637944    3.11180165512145
F         -10.21081806167665   13.91982004618240    1.53429104329693
F          -9.14437092061610   12.33250641928826   -0.42553425824188
C         -11.00859426506225   10.69080597887650    4.21203652245695
C         -12.21269780487287   10.10182003758938    3.97432530585321
C         -13.48244170793307   10.54013836094201    4.52988222782494
C         -13.64106192687039   11.25429691000548    5.68729936787163
C         -14.89437683583649   11.63194124781019    6.21263913359201
N         -15.88808734659288   11.96817055923915    6.67811312678611
C         -12.57704606110287   11.64937767323894    6.52627034034482
N         -11.75944751684619   11.96857514068016    7.26627575329744
C         -14.54546270074116    9.99910517304077    3.69579100919485
C         -13.95816069256666    9.15741452401385    2.70756748272704
C         -12.49625420610223    9.12908386632737    2.87998967223643
O         -11.70273381603339    8.48869460171258    2.22512119850935
C         -14.71331543034707    8.50421625720682    1.77597254506890
C         -16.11650494284923    8.66626862580335    1.79083295400016
C         -16.71122507018064    9.51037420750036    2.77345187304205
C         -15.90373873915718   10.17441174492279    3.72523432854646
C         -18.11221542528737    9.66684127173693    2.77506910259624
C         -18.88986685578325    9.02103142429809    1.85262415395688
C         -18.30338876478527    8.19019837127938    0.88617965162676
C         -16.94627640877129    8.01593852939053    0.85637756922267
H           2.60492951472570    0.02104932557136   -5.51395084470388
H           4.65988089716039    4.55324302594621   -5.13360161214304
H           5.83379004723328    4.18584837986229   -7.23201526411977
H           6.36649106915234    2.75683851260108   -9.16539240732355
H           5.37063146034683    0.51283224294705   -9.36415698541220
H           3.83040982348917   -0.31910730815507   -7.63129689520071
H           0.18374922426708    2.28009459564271   -1.38359798984584
H          -0.82009924681373    3.63971238454410    0.34805885338651
H          -1.86669008620444    5.73503046103670    1.00137738512614
H          -0.34363614154181    7.62548237386593   -2.45502877845890
H           1.33457186083646    6.17559119835110   -1.69422088593976
H          -5.44556466972707   10.84808577960917    0.93552403958023
H          -5.77076492358357    8.01265271911304    2.05249686533521
H          -7.81670630609717    7.55205728184573    3.11536767381377
H         -10.04001060142725    8.17842583339372    3.87013503930198
H          -8.24404346604963   11.57952430951114    4.45997814790795
H          -6.71147383545011   11.56485368726600    2.68841899311359
H         -10.99409891450643   11.62429348503571    4.76279548772717
H         -14.24488021050236    7.87093769255945    1.03716643150067
H         -16.38033185845380   10.81404472302229    4.45130577747946
H         -18.55952715383699   10.30648676830734    3.52157832395047
H         -19.96204669585500    9.14709096320305    1.86251107316456
H         -18.93201388103903    7.68943388051041    0.16524590244557
H         -16.48874817962662    7.37782950113296    0.11458079159581
