84
 SCF done       -173.745926640377          0.000719478999
C          -0.39341455441268    7.30891412862344    1.76102974679471
C          -0.98404703128097    7.62638310812387    0.56878123054264
C          -2.16100634249120    8.39811021723677    0.46126788167155
N          -3.12568829458638    9.00339178600616    0.31892385620938
C          -0.46756912112233    7.29276625079683   -0.70102744792820
N          -0.09271595821574    7.09168236501332   -1.76707869448464
C          -0.78183146170030    7.84148362539641    3.06247889117088
C           0.30612136964500    7.67285398025254    3.96884844677602
C           0.24322462496681    8.11778376344572    5.25819093715743
C          -0.93455464799832    8.75208876376601    5.71209784187843
C          -2.03404066608665    8.90520573322224    4.81804722401179
C          -1.93835655630237    8.44134666417786    3.48629985101565
C          -3.20820121631163    9.52962475156330    5.28693008784860
C          -3.29251114558939    9.98497398135983    6.57438298529598
C          -2.20832841663050    9.83645344461349    7.45279987585411
C          -1.05453919544241    9.23360401757259    7.03080541622397
C           1.40211724618746    6.95920135985160    3.29200011125164
O           2.48700606542577    6.66479574038029    3.73304138991619
C           0.85684389848219    6.59051747740844    1.94770496540093
C           1.48381362853503    5.64169977934394    1.22246099935721
C           0.98822185006646    4.90793489901905    0.09421816267123
C          -0.28660191343148    4.48095334582361   -0.18131602320182
O          -0.32099899546959    3.78514124209506   -1.32183271254285
C           0.92102495105670    3.74471120703895   -1.81213495812494
C           1.79329022941381    4.39297780878851   -0.98085337104655
C           3.23296387514558    4.65443570446571   -1.12607646058708
O           3.75859400114339    5.64584549031499   -0.65342506964842
C           4.01818531204683    3.65199108049259   -1.83272538508022
C           3.74856705430355    2.34304366403784   -2.16713053478640
C           4.82996871103885    1.69149009333981   -2.75550678976617
C           5.94870560599695    2.49693082213654   -2.87244160692850
S           5.64941406782804    4.08344873644992   -2.23375681820417
C           7.21204700814146    2.13776950956583   -3.40438518379174
S           7.52978196288768    0.53495924148570   -4.00905679754992
C           9.19687051794442    0.86334086199201   -4.41680872937516
C           9.48934745605106    2.19045745942333   -4.09445671529606
C           8.36884040101456    2.88600334909110   -3.52697262693636
N           8.74847592029755    4.15507425082827   -3.23207278194009
C          10.06896223538600    4.28213885221543   -3.58891679396383
N          10.73060581283377    5.51185900551132   -3.39175358099989
O          10.06726932476987    6.41364842739860   -2.90970661467770
O          11.89830738707480    5.58756082801589   -3.71200331376210
C          10.56308825728823    3.11210224378118   -4.11705210904234
C           9.98870104073329   -0.19413648988843   -4.96236993947172
C           9.48583584745631   -1.48740806027345   -5.03493903164723
C          10.21782151408379   -2.55551048077104   -5.54687969293797
F           9.60404764819529   -3.75287927762416   -5.52084399200337
C          11.51493046347395   -2.45970239702482   -6.02285241236281
C          12.05932342471402   -1.15389255113348   -5.96637611262610
C          11.31300181528632   -0.02771288509090   -5.45785637173523
N          12.01580888594004    1.09744236782254   -5.54099867056795
S          13.45384770422980    0.78685381226091   -6.18276592205930
N          13.26957335855002   -0.79122172939680   -6.39268549293379
C          12.28419858857004   -3.59165670211204   -6.53716973287060
C          13.65606443158514   -3.67990501007564   -6.28383044237899
C          14.37216310601776   -4.74996785306819   -6.76273024956472
C          13.74421731635470   -5.75642095160585   -7.49730029033165
C          12.37329380347056   -5.68613441225539   -7.78049782154992
C          11.67273462686856   -4.59424514940115   -7.28900732987718
C          11.62209894799798   -6.72616493979289   -8.58658963517136
O          11.36205292253198   -7.89256705098295   -7.85405668561632
N          14.58001066427392   -6.83312300332080   -7.94646871767963
O          15.77680636703545   -6.64077802750250   -7.97670428020216
O          14.05626647408377   -7.88623375998147   -8.26458398717875
H           1.08335554960379    7.98726977612188    5.92404037156803
H          -2.78946512364866    8.56276660003849    2.83444785179969
H          -4.03874914806877    9.64545151043361    4.60606356049638
H          -4.19532454297722   10.46343332539764    6.92338205588783
H          -2.29238101544350   10.20170063231443    8.46538323098799
H          -0.21649102616788    9.11619316603924    7.70221975872905
H           2.48058432320690    5.37593527218517    1.55955802792280
H          -1.20214849607750    4.57611590289699    0.36931960229550
H           1.05752506572052    3.27646649587699   -2.76683064727529
H           2.80765740248583    1.86607010342437   -1.96408907080260
H           4.81684636018665    0.66722735881104   -3.08326424316740
H           8.20402005839309    4.89813122838638   -2.82096918445763
H          11.55542176438026    2.94710120970855   -4.47839070055653
H           8.49126403046830   -1.70098952724620   -4.67375460341017
H          14.14668332141159   -2.91335326819074   -5.70792389339134
H          15.43092821940266   -4.83907183842816   -6.57155307200396
H          10.62022229329825   -4.52532775279607   -7.51416128606036
H          12.17816938173986   -6.95714287580376   -9.50663424859514
H          10.64529984295515   -6.32144919582450   -8.86291135954041
H          12.19481952963845   -8.38389263358907   -7.78274412125359
