122
 SCF done       -214.862950127500          0.000254455595
C           2.00226735192112   10.01840621394219    6.31876074669368
C           1.69658208437385   11.21936745297863    5.72644645186761
C           1.56112869053888   12.43014045843796    6.43265301618153
N           1.42049319377735   13.44112473882309    6.95933124128471
C           1.57731750228046   11.40060708663542    4.33452810598294
N           1.51699082195517   11.61225219931530    3.20748695286591
C           2.40500264375757    9.85019816289548    7.71264510662118
C           3.09968412778727    8.61153351889197    7.83460254288876
C           3.62472734755460    8.19790289848727    9.02402207744010
C           3.46411335844145    9.01205715495306   10.16867586796783
C           2.75637229609405   10.24317595046456   10.05660574214236
C           2.23132776767382   10.65111268760321    8.80794787054881
C           2.59534978279892   11.04073097149665   11.20728090244252
C           3.11014979896323   10.64473704750838   12.41180084836355
C           3.80784870817458    9.43298873082619   12.52109610362819
C           3.98149316860584    8.63449101527148   11.42315235729498
C           3.10431797881016    7.92785203941537    6.52791205448845
O           3.64069950829653    6.88271290807731    6.23381665897943
C           2.24735245631555    8.76575178728795    5.64586653248619
C           1.78645511929250    8.23274692058957    4.47457227166580
C           0.67141632703674    8.61711525240856    3.70710353729545
C          -0.41687431600159    9.40531734393315    4.05833218852833
C          -1.39142272554077    9.52534221797550    3.07477747460649
C          -2.49008185330137   10.48925349295657    3.23075098202153
C          -2.46562099846212   11.60621917728895    2.36741746587393
C          -3.36417797165961   12.64571528704213    2.54429444263380
C          -4.28524203557869   12.58616536503448    3.57866916744321
C          -4.33137150281758   11.49814122258149    4.41866642960397
C          -3.43907507572368   10.43638221380663    4.25351058193033
O          -3.60595276921246    9.41329829573197    5.13752121692201
C          -3.21942286388806    8.10019648190471    4.80326895246550
O          -1.51548139847542   11.56381254867298    1.39762427075013
C          -1.29699065976618   12.70944755980496    0.61047935586635
C          -1.07444948959848    8.81114259860573    1.90856145069314
S           0.46084449974036    8.00117031090501    2.09362792936443
C          -1.73982712571108    8.63599025587534    0.68560053504486
C          -3.05113702020626    8.85267107467503    0.33251231828322
C          -3.56482715783104    8.63606089792557   -0.97299621830154
C          -4.90827414080966    8.82527120169164   -1.09424801457366
C          -5.53561478503635    9.19347429517060    0.11474791910429
S          -4.36064326656745    9.31013416215871    1.40219786910484
C          -6.87541301975042    9.44584305038269    0.35418688604477
C          -7.95879521616504    9.34386374913204   -0.54370611952534
C          -9.17164562654058    9.62663639041208    0.01204944654253
C          -9.11112536088817    9.97219549615869    1.38245722806459
S          -7.44241417153120    9.93360122254489    1.93267639315244
C         -10.10618236926658   10.29431764907987    2.27705715258563
C         -11.49151535669425   10.32594431877308    2.07418812861807
C         -12.42502843255391   10.61616135148801    3.07027977212257
C         -13.75362942854490   10.56883620851618    2.66833713231463
C         -14.84295741373638   10.72944654514379    3.63701012680708
C         -14.94093828485827   11.84793197562296    4.47292984417188
C         -15.95464063681316   11.90078503326668    5.43434755619354
C         -16.87130232682249   10.88364330204772    5.54545328100552
C         -16.79698107388711    9.77452979661287    4.71581530069864
C         -15.78212314359343    9.68742756147524    3.77834389572888
O         -15.58888298921814    8.60619284274430    2.96531545330730
C         -16.49049491252820    7.53015402261078    3.03899522864101
O         -14.11031745881196   12.92261557235413    4.47055233698718
C         -13.58812413882299   13.43590871558128    3.25920710184181
C         -13.89123051453031   10.22685967187432    1.30994875699827
S         -12.31591080726667    9.97036042199235    0.58662178522270
C         -15.00108754475796    9.91719609639429    0.51631785813572
C         -16.32648889853819   10.21713072814470    0.74119759163051
C         -17.45649340108013    9.49768572668691    0.20824912865361
C         -17.42557826314307    8.38429463996798   -0.59928648912621
C         -18.57319891574627    7.70012496191312   -1.04427097965119
N         -19.46526671830081    7.09485584686556   -1.44219136516154
C         -16.26235502627087    7.75440783515813   -1.08209770951488
N         -15.36700450024125    7.16775944809730   -1.50129250464325
C         -18.66664097797701   10.08634110254996    0.78026493386162
C         -18.28893162800843   11.18695430505815    1.60057985152214
C         -16.82771261004801   11.35347046811665    1.53329987510993
O         -16.18805613485684   12.30741113514494    1.93623586816695
C         -19.20273409332149   11.91375050578028    2.30417894309030
C         -20.57011073296552   11.56339433374026    2.22146030079169
C         -20.95956462557121   10.47212172262951    1.39375534995802
C         -19.98626529742871    9.73907720313474    0.67395385060220
C         -22.32581037811496   10.13661063212931    1.31098409797929
C         -23.26455794091543   10.84264384850152    2.01337478016758
C         -22.87964885202126   11.91517291554769    2.83070263095001
C         -21.56075872792039   12.26706845071966    2.93308166185673
H           4.15520081494722    7.25986368156290    9.09362532080277
H           1.69233214383237   11.58418237162727    8.75244195574571
H           2.05974873141820   11.97449280003237   11.11738426529910
H           2.98262398218457   11.26387620604051   13.28721165821190
H           4.20681322022237    9.13495779019221   13.47921520825207
H           4.51779563155646    7.69997835623329   11.50125628696364
H           2.30879929625242    7.33966858405126    4.14524626167778
H          -0.51483262659160    9.87404508146248    5.02255703446411
H          -3.35100669571068   13.50314286544125    1.89191294705465
H          -4.98124554763484   13.39945217050742    3.71519423787259
H          -5.05225231206222   11.43245039006747    5.21673783339661
H          -3.88103395230173    7.44425127042674    5.37082427030983
H          -2.18407298881855    7.89400364420957    5.09177780361253
H          -3.34461471813524    7.90272376011398    3.73633252259752
H          -2.15693430249600   12.92660761980282   -0.03219747348753
H          -0.43282170149064   12.47420815102548   -0.00824993286872
H          -1.06984516939984   13.58188278842603    1.22933924872566
H          -1.12544621140339    8.21462730652341   -0.10208069459346
H          -2.91770806587176    8.34994348368684   -1.78333233921915
H          -5.45630187772529    8.71246550854237   -2.01221628321338
H          -7.81975566174361    9.05794589070424   -1.57076894073810
H         -10.09943598628320    9.59397302144330   -0.52830015654162
H          -9.78936473746542   10.53632691482339    3.28390679221764
H         -12.13034340571328   10.82046939076355    4.08554634361145
H         -15.99945288599663   12.77077652964942    6.06922168409335
H         -17.66247129479351   10.94508146770420    6.27711195484033
H         -17.52415057944707    8.98596994604653    4.81896083839634
H         -16.14874005911770    6.81330228376999    2.29319003363245
H         -17.51333948250972    7.84126139987421    2.79926631179748
H         -16.47657953662073    7.05859435876273    4.02651212079570
H         -12.56773511217399   13.08268097382237    3.08198013593937
H         -13.57137706626409   14.52065533691827    3.37761093495510
H         -14.22622050383605   13.17393734169910    2.41645930464868
H         -14.77003399107820    9.31361440813518   -0.35348890985382
H         -18.88562568209104   12.73870345152432    2.92463101242669
H         -20.31549992104447    8.91879250383672    0.05608766672031
H         -22.61697168377447    9.30888607118390    0.68078993764672
H         -24.30896410952807   10.57766233094599    1.94268230635202
H         -23.63293855484741   12.46198039394441    3.37817974026717
H         -21.25781682206282   13.09309415055891    3.55999309099915
