129
 SCF done       -226.124824794168          0.000503702434
C          -3.59706435132744    3.83595456595459   -5.04850671638881
C          -4.66865990213890    4.32972430674031   -4.34932963482866
C          -5.84704721388842    4.80855013469846   -4.95183682841306
N          -6.81652676953849    5.23754137946580   -5.39424806350711
C          -4.74196470101922    4.31949703429738   -2.94072151030946
N          -4.86805611455631    4.25922187507470   -1.80115157016390
C          -3.60207104724144    3.49404867145990   -6.46654725983477
C          -2.57044846264500    2.53817544855343   -6.70076493107225
C          -2.36821650798272    1.99247912769123   -7.93496735340010
C          -3.19457159036437    2.39274633396381   -9.01001854347469
C          -4.21568345499254    3.36023229348674   -8.78482695747433
C          -4.40775830337615    3.90354733346939   -7.49341629608454
C          -5.02845413257288    3.75377216345721   -9.86707378099328
C          -4.84672600688884    3.21588287802911  -11.11193174585697
C          -3.84201795093866    2.26231861978165  -11.33262852068076
C          -3.03381777439900    1.85998266404659  -10.30417935330030
C          -1.82948900207640    2.30216262169471   -5.44545697107164
O          -0.92398838827868    1.52231229137412   -5.25025268250485
C          -2.38853978558844    3.28263593556397   -4.47774030358046
C          -1.68657727081239    3.60135072675726   -3.35365595680145
C          -1.77711202710186    4.76028872263000   -2.55250364874946
C          -1.24729622614983    4.92931472186992   -1.28471914146870
C          -1.46875887569234    6.19083406137013   -0.73344431297671
C          -1.09712007831268    6.54803239846769    0.64626494108772
C           0.23891763420414    6.78181666541933    0.98236238875316
C           0.56880633744169    7.09622162492711    2.29656132780961
C          -0.42907090282252    7.16233519150581    3.25204701416055
C          -1.75296139787961    6.92070803762135    2.93590471872987
C          -2.09664836558013    6.61524051027809    1.62383136861315
O          -3.35928081537292    6.37115954312493    1.18297143332710
C          -4.37179116943788    6.13398049994733    2.13361523111212
O           1.12538709234760    6.68644670512942   -0.04802455633346
C           2.48952218354701    6.90449928035750    0.21904385211663
C          -2.13777137812922    7.04075417478809   -1.60663375718866
S          -2.50729370040752    6.24558041601658   -3.09971884288102
C          -2.53514713698542    8.38873771672892   -1.41511238846815
C          -2.18151693449748    9.27106301903961   -0.41531880275443
C          -2.80234212953499   10.52241786999771   -0.52053550229532
C          -2.51439716199418   11.62580412726231    0.40970226274311
C          -1.86716541221342   12.76520764472048   -0.10941626761395
C          -1.45240275569481   13.78042994993699    0.73701836253933
C          -1.65976833883160   13.66065840430877    2.10244805687427
C          -2.31031214934941   12.56553239338273    2.62261814573742
C          -2.76076119406493   11.54699248014173    1.78105655812895
O          -3.43122058428205   10.53324373319948    2.40136889387706
C          -4.48477362231165    9.88099521952815    1.72465164103869
O          -1.68229857104931   12.76112957054123   -1.45898298031229
C          -1.18075507100146   13.92548043218079   -2.07189468283202
C          -3.63877683134229   10.61353814179478   -1.62465534947347
S          -3.64430886715901    9.13058520073451   -2.53165915585482
C          -4.47978710561467   11.67858411693895   -2.03116934915674
C          -5.15675703701964   11.76768290278953   -3.23250951648744
C          -5.96753864934458   12.89574502346573   -3.35575267863083
C          -6.70743100934501   13.21387923024694   -4.57448360649853
C          -6.65092743419164   14.49503551057691   -5.14360446836588
C          -7.45140658463289   14.80384775487627   -6.23463115336653
C          -8.29568542901743   13.83986022267149   -6.75789937720618
C          -8.33161189053627   12.56139369732502   -6.24084831995502
C          -7.52955495103879   12.23008091074900   -5.15141978377108
O          -7.48565572615800   11.00543145729068   -4.58224612009475
C          -8.41454567624376   10.02867902223967   -4.99114577605366
O          -5.76913340537269   15.36535540184240   -4.57122009925611
C          -5.65714056679358   16.66404084238744   -5.09825845703680
C          -5.94274241462523   13.69303437307092   -2.20435703848847
S          -4.83091309362438   13.03827820442862   -1.01942532166951
C          -6.57091963219246   14.90911519353406   -1.89850966567052
C          -7.74356468664176   15.40421949196209   -2.41651341532976
C          -8.16876375157169   16.77996252577195   -2.35328139645602
C          -7.38231757486196   17.85560651696304   -2.01225033631672
C          -7.83072991454832   19.19006079097548   -2.01195170368203
N          -8.13963700751888   20.29667648693382   -1.99107758337374
C          -6.01460577194660   17.77937769542467   -1.68460131336482
N          -4.88927840717900   17.81037928646910   -1.45132405465999
C          -9.53310337840097   16.85539421578088   -2.86687961476936
C          -9.92883393112886   15.55026354366108   -3.27430532792456
C          -8.84105304578484   14.59558975912644   -2.98566960687962
O          -8.90099189289162   13.38689792947301   -3.09180505681940
C         -11.15196849012447   15.30683555446616   -3.82477029493062
C         -12.05606008539931   16.38009281764874   -3.99778108459742
C         -11.67250804509669   17.68688755418830   -3.58218364988934
C         -10.39572947207616   17.90787139869753   -3.01372286219805
C         -12.58535842937602   18.74743152096858   -3.74991288975355
C         -13.81823992792796   18.53042400963663   -4.30292676707048
C         -14.19449454865533   17.24327759293976   -4.71294934968321
C         -13.33134027527973   16.19145560682679   -4.56446492844308
H          -1.58811035175241    1.26236671495050   -8.09185795802402
H          -5.18250915950455    4.64042268472277   -7.34821998950231
H          -5.80266970458348    4.48621100129953   -9.69093073905527
H          -5.47694916832480    3.52168062917575  -11.93375254329799
H          -3.71164624174173    1.84816284182502  -12.32132702471191
H          -2.25833267527196    1.12603989266305  -10.46851862549731
H          -0.89314045689642    2.90894031186868   -3.08869921745128
H          -0.75069179182749    4.13522500440791   -0.75601126308046
H           1.58978560176849    7.28824322412453    2.58256576830236
H          -0.16695142796380    7.40822907816407    4.26985748537768
H          -2.50425286545191    6.98086964160352    3.70552186763922
H          -4.59750339339994    7.02933310231537    2.72058904232031
H          -4.09842387489493    5.31643125853505    2.80729241352974
H          -5.24804755163781    5.84840690448328    1.55425057172481
H           2.87812580926337    6.18300072002675    0.94467679538089
H           2.67106018155261    7.92093885584258    0.58255703566383
H           2.99933704111824    6.76696744103664   -0.73313683784669
H          -1.48464965643415    9.02851097755049    0.36612682089516
H          -0.96037028196864   14.65721837773490    0.35043929265416
H          -1.32211318659943   14.44721015862602    2.75959064132647
H          -2.49837877960966   12.47152287737299    3.67967145492268
H          -5.18742192323162    9.56883841390836    2.49935693740925
H          -4.13504176722930    9.00100815453172    1.17845916709624
H          -4.99550841552699   10.55698178933534    1.03488340853598
H          -1.19695948792198   13.72130138724607   -3.14147689207895
H          -0.15276175140348   14.13483840389527   -1.76014975120275
H          -1.81305808793955   14.79255566312693   -1.85918348315903
H          -5.04523304265392   11.03217402482350   -4.00845669223892
H          -7.43022172016367   15.78577455077934   -6.67820656008460
H          -8.93034254141424   14.09362007712773   -7.59382852688368
H          -8.98904338263944   11.83051473426160   -6.68177709721094
H          -8.22534650382508    9.16302862489690   -4.35842066779509
H          -8.26785897310632    9.74444249706004   -6.03814552773130
H          -9.44166285565392   10.37206996655138   -4.84166817561597
H          -5.30180224396134   16.65006304730912   -6.13345747448349
H          -4.92488749094219   17.17009109592685   -4.47043197203565
H          -6.60811320371612   17.20568122659200   -5.04964695583964
H          -6.06035556425949   15.51002973452172   -1.15383588323249
H         -11.42639518105145   14.30755471257696   -4.12854906335980
H         -10.13685585344019   18.90765377467541   -2.70230650126985
H         -12.29047699504906   19.73730309170921   -3.43338724920544
H         -14.51026664208970   19.34997600130659   -4.42712146015282
H         -15.17162925285748   17.08863376056670   -5.14602100382873
H         -13.61601876759480   15.19720054622978   -4.87701342991425
