93
 SCF done       -180.982777849741          0.000955929408
C           1.40088530658506    6.79529567647857    2.49845239718803
C           0.29183817532087    7.52180352152897    2.16158008052602
C           0.24945393998906    8.92788587816203    2.10470695201630
N           0.11178290786728   10.06775321081594    2.08681161078201
C          -0.97067372418949    6.93595481661627    1.92620872753442
N          -2.00106947567803    6.47753414511680    1.71454074576259
C           2.70914980908649    7.33196723990291    2.82563708201019
C           3.38736722147396    6.39937966058303    3.66746958816422
C           4.64493450233510    6.65150030797065    4.13749134474634
C           5.30002790299265    7.84107343570049    3.74339742134893
C           4.64890477506291    8.73941063920588    2.84676582732461
C           3.33104788935770    8.47542226614092    2.40594227036291
C           5.33467011314915    9.89552928063853    2.41772789529837
C           6.59627105084360   10.16646017737200    2.87407269450384
C           7.22920928960007    9.29362245942742    3.77246779583741
C           6.59749441234892    8.15470862346719    4.19507129462185
C           2.55115252895867    5.19919407426918    3.83946365325942
O           2.73362554201772    4.23815854847525    4.54119264935576
C           1.43031613415385    5.38356447922722    2.85088205707443
C           0.77727789116127    4.31617228797831    2.34786058149541
C           0.01617650073051    4.29958245629607    1.12289597675293
C          -1.05638786816737    3.50301335550937    0.91362574961649
C          -1.88367229272045    3.52843377239327   -0.25265411933338
C          -2.93887973804268    2.63775022438781   -0.36750624487875
C          -3.80561342596284    2.63827721517665   -1.47524756551237
N          -4.51546210253035    2.64312729564677   -2.37730593461180
C          -3.20406656956363    1.66100530330766    0.60885410495859
N          -3.41670613118905    0.85996868525618    1.40321255027144
C          -1.67259342493271    4.51865798365933   -1.26709461736465
C          -0.63028886842630    5.37519286529015   -1.30452904734480
S           0.66107783324624    5.35630590306271   -0.12412884108516
C          -0.46493742252900    6.43198209004370   -2.29216446720385
C          -0.84420242416378    6.32605395311887   -3.58305946744763
C          -0.69892718895788    7.35441486893669   -4.56816601866072
C          -1.11358334803792    7.12662160006952   -5.86970937321859
C          -1.01572220665170    8.11017187471021   -6.87044877117420
N          -0.94424755336938    8.91681802354990   -7.68402255952940
C          -1.65488950628414    5.89495392214409   -6.27998116331154
N          -2.08632813914415    4.88512470997119   -6.61433062085838
C          -0.13843178080338    8.62213163472038   -4.21010779350663
C           0.32388599194249    8.95776716994436   -2.98597248539423
S           0.30095934906257    7.86298655123154   -1.61782692723801
C           0.83799393622778   10.28392548823873   -2.66719897908777
C           1.51792964403902   11.04186952146879   -3.55788647773516
C           1.97371239588278   12.37526952799740   -3.31536023904730
C           2.76597668973357   13.02135756593123   -4.25093033532213
C           3.22749530141053   14.33475629552607   -4.05781385019767
N           3.61004048006855   15.40529591518781   -3.89661941496313
C           3.18885467346684   12.39433271327068   -5.43577524831521
N           3.54263520357367   11.87244875843111   -6.39543488038094
C           1.56356052737686   13.05611636606759   -2.12587101023569
C           0.94022006862332   12.48195457391095   -1.07487601910616
S           0.49060081970957   10.79070006935684   -1.02531167272436
C           0.47416594739837   13.24936386883381    0.06959585724473
C           0.72554512209589   12.95539074715576    1.35822173962836
C           0.16652505650402   13.59559022806108    2.54543384491117
C          -0.86615743976960   14.48953162290585    2.56786626090311
C          -1.39093572297750   15.06632039957161    3.74618953457429
N          -1.85361513322552   15.57625533081634    4.66358282414648
C          -1.56053318247074   14.95283266253427    1.42853602801374
N          -2.17102936727194   15.35920963188331    0.54588972846929
C           0.86214034180209   13.05429522810356    3.70164655071281
C           1.82196253692699   12.09545534373671    3.26230982936457
C           1.77366203618203   11.98449585058969    1.79848581833217
O           2.50349122103488   11.34231220768015    1.07181737548367
C           2.62225792760867   11.43213083904126    4.14869367752218
C           2.49013879782133   11.68606150692575    5.53024918635405
C           1.53099525653289   12.64038832627895    5.97655102883942
C           0.72359419320278   13.32218173204189    5.03966355587121
C           1.41018993401400   12.88527378220146    7.36005464594600
C           2.19713934350609   12.21768332702514    8.25856142979530
C           3.14081674761600   11.27693465977908    7.81720470735000
C           3.28498125610324   11.01635238240954    6.48153307509679
H           5.14274965845846    5.94706746857324    4.78693031990321
H           2.85661006964057    9.17148850520836    1.72948208967888
H           4.83557834036061   10.56088816465639    1.72834315831873
H           7.11370438361005   11.05452606723647    2.54434411306117
H           8.22359909962640    9.52434442054992    4.12347002021285
H           7.08588558161456    7.47569371690840    4.87830484416888
H           0.89422840651480    3.37338087344974    2.87041752685442
H          -1.36303828180367    2.84613596887339    1.71773252385117
H          -2.43685897058908    4.60437607390143   -2.02834672128278
H          -1.28127317698754    5.39313518224218   -3.91471966545014
H          -0.10962105623182    9.37165883698579   -4.99018427437661
H           1.74588673830115   10.62074220750295   -4.52844910090059
H           1.80112171337047   14.11052324747392   -2.05908414771601
H          -0.13777861924785   14.10608776970148   -0.18477862808166
H           3.35289760092946   10.71629427833899    3.80910279090787
H           0.01211374224011   14.04556533559199    5.40490834889149
H           0.68265038744014   13.60927855027610    7.69575265102445
H           2.09739537325931   12.41039604542355    9.31596128195733
H           3.75261921797038   10.76058096708779    8.54146486832548
H           4.01014930292577   10.29423765962605    6.13327439604920
