105
 SCF done       -187.510953692962          0.000665131299
C          -3.13316369011945    2.97263022440135    0.33076072274580
C          -2.52915341955106    1.77029657953604    0.05077572511097
C          -2.29178044526060    0.76862200642017    1.00662847189377
N          -2.02885397973056   -0.06205321885137    1.75622466429728
C          -2.16453116368886    1.39188261148395   -1.25660438761007
N          -1.92224318628179    1.02817473296608   -2.31862631818477
C          -3.87344048813056    3.28778672808988    1.54866956162171
C          -4.75051126540613    4.37583730550631    1.26674705869864
C          -5.59789537277123    4.87427029892093    2.21208542983774
C          -5.59516353361530    4.30825468854050    3.50831106024087
C          -4.71171880197571    3.22937998473846    3.79862711410366
C          -3.85338387776345    2.72343388874100    2.79397364623728
C          -4.71277691477240    2.68221635072973    5.09728596450437
C          -5.54615943270333    3.17429447080248    6.06480555837563
C          -6.41618399774218    4.23607531240731    5.77799352393762
C          -6.44071725207981    4.78984410741953    4.52652834987854
C          -4.53744043819003    4.82613642861101   -0.12506734710659
O          -5.13254057124468    5.69444663355982   -0.72340696610100
C          -3.37680455937163    4.03549521952323   -0.60853964135274
C          -2.63635271626620    4.51249014107207   -1.66009015796554
C          -1.28906978215847    4.31528920451821   -1.97006198231105
C          -0.61886230375769    4.98467944344589   -3.01838072899882
C           0.78489670650968    4.78064722225901   -3.00960775726875
N           1.59076369511144    5.33573943490200   -3.92267785756022
C           1.01676778797975    6.08454088419203   -4.83612104430053
C          -0.39641956428916    6.30848753603343   -4.84036674066654
N          -1.19036130877240    5.76759175357825   -3.94581569568668
C          -1.03483062067651    7.17309897118663   -5.87323879377309
C           1.90392427735026    6.69208637921915   -5.86852890012409
C           1.20924251641748    3.94613059943071   -1.95777826091637
S          -0.13411341516024    3.41780281143479   -1.01197464714041
C           2.51135898693270    3.57256507710118   -1.65077017701527
C           2.86870892218115    2.62669601018527   -0.67007448830638
C           4.26993287500592    2.46318393116168   -0.55229466793992
N           4.80130453087797    1.60519921627944    0.32857087485145
C           3.95641702578051    0.91236375332063    1.05761160554545
C           2.53703569630055    1.07016431250471    0.93188409806031
N           2.01206474667837    1.92745804759189    0.08568246686811
C           1.60084131068286    0.26344464110893    1.76106870881877
C           4.53984252962337   -0.05566430388510    2.02783647009744
C           4.98772921509182    3.30692693116787   -1.42199540651436
S           3.91635549999967    4.24463656079597   -2.42028132878019
C           6.36587832815949    3.48119900374236   -1.45226899975890
C           7.04068015725400    4.43693278905936   -2.23730125530211
C           8.43730134066394    4.48215117912229   -1.99497649348041
N           9.18930909050717    5.42509247549800   -2.58873634944011
C           8.59310133972700    6.22122811165261   -3.44652894578652
C           7.19657513405785    6.12087659561651   -3.73233961832706
N           6.43655445646861    5.25252934616739   -3.10510758453807
C           6.53472593564073    7.00588258986010   -4.73163037802877
C           9.44548107199608    7.24579837866089   -4.11355887228263
C           8.86065823895084    3.52260650934714   -1.05209699726444
S           7.47769153330012    2.63083196673221   -0.44977303224443
C          10.12028741753578    3.27155371436613   -0.49923122834654
C          11.35788495138129    3.71420119441264   -0.89064419698191
C          11.84802367490351    4.29591121347233   -2.11045267006486
C          11.35823489494581    4.06710698421096   -3.37323040470336
C          11.87190109093787    4.66198949459445   -4.53868701484055
N          12.22238746486312    5.15082056310299   -5.51800640476112
C          10.31137787239824    3.16588129304791   -3.64078523004086
N           9.48183926132631    2.41414194641170   -3.89816194443887
C          13.09552438591821    4.98633728454358   -1.79589432938541
C          13.47663685553387    4.64232104025478   -0.46595095410531
C          12.44753378249292    3.76128005324491    0.11951045957349
O          12.45422972588284    3.22866405662441    1.20772390674574
C          14.61973181615758    5.12452630366271    0.10082401263714
C          15.44159093268883    6.00156597663056   -0.64417250686307
C          15.06034903461293    6.35919071283937   -1.96904169426243
C          13.87538455523072    5.83201915206202   -2.53545110212979
C          15.88355990851682    7.24231223570415   -2.69589670563667
C          17.02907337724576    7.74830043764090   -2.14381881828831
C          17.40404506081114    7.39463745477775   -0.83964581775254
C          16.62730134095092    6.53883204675000   -0.10649184542543
H          -6.26178561046589    5.69331551640404    1.97841219121519
H          -3.18863720515389    1.90933222724290    3.03888481165813
H          -4.04251722531798    1.86285775699504    5.31276623102915
H          -5.53938415262738    2.74752285457890    7.05675030316022
H          -7.06661580681806    4.61339740253008    6.55297691132414
H          -7.10879124905128    5.60803205167730    4.29995811462804
H          -3.12247744166843    5.26801237230943   -2.27068606928446
H          -0.61497466495787    8.17739980800202   -5.84319725892807
H          -2.10361562744145    7.22193511013632   -5.68700806332359
H          -0.86108532695139    6.76592372081489   -6.86823973076161
H           2.92583514099612    6.36930422302201   -5.69151604633733
H           1.85366444512990    7.77916707727360   -5.82361974355215
H           1.59496929665711    6.38249074697158   -6.86564358427202
H           1.76145423387032   -0.79938104669103    1.58744215631143
H           0.57448205238271    0.51174399217867    1.50773374887556
H           1.76577340224549    0.45608091591301    2.82012629001394
H           5.62342760860257   -0.00950629931003    1.96961222468351
H           4.20833793525183   -1.06726948008394    1.79834730747024
H           4.21942105626445    0.17901125019588    3.04161535592940
H           6.99483875805883    6.88020676447465   -5.71042026398199
H           6.63452619055288    8.05169956328645   -4.44441246574499
H           5.48124585186013    6.74712886808810   -4.78747839016934
H          10.43418924590005    7.24417702769529   -3.66325767142352
H           9.00427018382239    8.23652938827103   -4.02332861784815
H           9.54445474529333    7.01370797818756   -5.17375273182985
H          10.11888605008762    2.71285768298459    0.43249659642308
H          14.89442870263870    4.84576479159386    1.10738979232048
H          13.60740882502554    6.12147748608026   -3.53990728920771
H          15.59242473036393    7.51030241358083   -3.70114912233292
H          17.65272402349562    8.42423457368983   -2.70978338648020
H          18.31056264881724    7.80332038929662   -0.41855472768195
H          16.91067093011846    6.26261785555706    0.89877836480313
