123
 SCF done       -241.717030029636          0.000396425051
C           1.05603028360099    2.07824910242698    3.03792284235341
C           1.61999176170897    3.32103472695664    3.17111503142727
C           2.22370128208333    3.78626861978424    4.35513904267429
N           2.70031257334450    4.22605829388248    5.30290907820634
C           1.67303018269798    4.27060844482634    2.13349530214215
N           1.74963713310268    5.07399280426786    1.31601762756448
C           1.16360797655090    0.99530732099734    4.00841436146217
C           0.89614539559416   -0.23786628278949    3.34437025577080
C           0.95323769090118   -1.43309062806476    4.00059776239362
C           1.27272846848060   -1.44921830431243    5.37738208909265
C           1.52370797915868   -0.21892064249845    6.05091652811582
C           1.46668220362521    1.00394572433734    5.34306577487868
C           1.83135937006780   -0.24887937138683    7.42628000762783
C           1.89155938888954   -1.43536461481139    8.10514473556758
C           1.64610341156948   -2.64620997466227    7.44074829834710
C           1.34405287210602   -2.65278423104764    6.10599004994883
C           0.55305866417383    0.03225198338249    1.93562553551456
O           0.32926581606385   -0.76615184366557    1.05563223816735
C           0.47669309841243    1.51873417867279    1.83539746353081
C          -0.16520837568563    2.08540425881954    0.78119396013735
C          -0.69282756088260    3.40242469665275    0.66078659080680
C          -1.12586982390350    4.18670968541391    1.75632565695827
C          -1.58144639784447    5.53208060830015    1.57324340365643
N          -1.92138496525377    6.27321247353412    2.64100757479415
C          -1.84435454813546    5.75189695732473    3.83179244597284
C          -1.48748569518651    4.39802750753240    4.00154058793246
N          -1.14814517879533    3.64661540365641    2.99228720442564
C          -1.66616603779202    6.14605439711467    0.30174633285471
C          -1.32943009268360    5.33317181596459   -0.79956285371503
C          -0.86274856053100    3.97867637405079   -0.61337024691292
N          -0.57702925960813    3.38941848774591   -1.77676568592834
S          -0.87196711503387    4.41476053951770   -2.96924535903352
N          -1.36877461247534    5.66212492182005   -2.09430638622498
C          -2.05143935567732    7.50922891053386    0.18359139374883
C          -2.13967214746797    8.23610972443184   -0.97917553699281
C          -2.57488788260639    9.55975869083402   -0.78746676016407
C          -2.79800314844512   10.54335543100828   -1.77884870797170
C          -2.67661868073831   10.22023296436081   -3.18306824635874
C          -3.06192597220985    9.07053248498447   -3.81496534669240
C          -2.77058040512783    9.08478695548010   -5.19462540514419
C          -2.16440128860902   10.22718796541210   -5.63334389433945
S          -1.95289814932000   11.32951354193692   -4.31655192317072
C          -1.71673952111229   10.57641851508613   -7.00435195003364
Cl         -3.14932164686211    7.75667239726164   -6.22358182356808
C          -3.14532395361754   11.80617715701045   -1.32045393489287
C          -3.33753017296322   12.11186282457402    0.05250867188514
C          -3.17710447177693   11.10859050123756    1.03487225527129
C          -2.77358321700986    9.85521151777747    0.58638645913519
S          -2.47524825758674    8.45200672727684    1.58834588730402
C          -3.43651394226882   11.34752898940123    2.43909094092879
C          -2.78680468414584   10.81555643499329    3.51680254970424
C          -3.35425903825531   11.20850646303209    4.74719584253655
C          -4.44186878051979   12.02556782738754    4.63629679062431
S          -4.77479010083095   12.33618484881140    2.96759209223532
C          -5.26636944443032   12.62988456043164    5.71282959939885
Cl         -2.72154607568662   10.68385937322838    6.25988873113447
C          -3.66418338518940   13.47251197994244    0.24144201233891
C          -3.75820935802363   14.18378737827759   -0.92386596585268
S          -3.43773459277531   13.19531985811293   -2.33130658628028
C          -4.05358268588986   15.56406763216561   -1.07658117695599
C          -4.15446659041417   16.27088002194886   -2.26061279573846
C          -4.43767531947104   17.61798978933556   -2.04101490552358
C          -4.55373477218684   17.93601185255325   -0.67650234235143
S          -4.32082996062651   16.57508638377470    0.33224400793910
C          -4.81841035851007   19.32074145252750   -0.55449163995650
C          -4.86771964731864   19.88393210786096   -1.84961371182025
C          -4.65383109575971   18.82627235532879   -2.82379416285067
C          -4.67589731217086   18.92899309210231   -4.18276484346753
C          -4.95633869585327   20.13646807960143   -4.85947543922726
N          -5.20482042717775   21.09355171388999   -5.43881763619250
C          -4.44599091789903   17.81507389386583   -5.01898330445715
N          -4.25841690915637   16.91419314880909   -5.70299472615451
C          -5.07513067545900   21.25646914066160   -1.84140283367883
C          -5.18992139285350   21.76172846600396   -0.55266740381856
S          -5.06308289888289   20.47935377324041    0.66303949299381
C          -5.42427596264544   23.06154260328824   -0.06158136950880
C          -5.32416677383043   24.27202723726852   -0.69065906475513
C          -5.68251746650938   25.53940283253288   -0.07668661950199
C          -6.44376544080825   25.71688536399656    1.05043215199423
C          -6.77405519148298   26.97873615877533    1.58734136431522
N          -7.07475879610088   27.97161568051287    2.07928004407475
C          -7.03429381802063   24.68751309460896    1.81258320549379
N          -7.56468873582991   23.90996879375423    2.47144100808530
C          -5.16239640133154   26.60908986714499   -0.91901983655534
C          -4.56696953730800   26.02404746356590   -2.07154435409635
C          -4.66941216504107   24.55741139783294   -1.99319136849162
O          -4.24492465184770   23.76843967812946   -2.81084481899749
C          -3.99792377788133   26.77960024019775   -3.05545737269083
C          -3.99511870596921   28.18643583261793   -2.92665483429802
C          -4.58010416006816   28.78093989151221   -1.77139160667091
C          -5.16426056282463   27.97090983684195   -0.77034195222039
C          -4.56452259443620   30.18531197892232   -1.64968434882487
C          -4.00086486310024   30.96619186772225   -2.62183423767588
C          -3.42699537610978   30.37965561914400   -3.75963352483354
C          -3.42461921803885   29.01923716282223   -3.90902583824735
H           0.75484499106341   -2.35686620792561    3.47759177041953
H           1.65361764966465    1.92207776068214    5.87813270718091
H           2.02322518230895    0.68570524409022    7.93284822016575
H           2.12934868500137   -1.44749462246281    9.15832859736172
H           1.69726893553126   -3.57340204432729    7.99173015794365
H           1.15408109316141   -3.58208250188596    5.58904911633326
H          -0.34261624935116    1.43554951162098   -0.07001029576857
H          -2.10637691047654    6.38619786254839    4.66607264281473
H          -1.50752055755622    3.92418854563158    4.97363428798506
H          -1.86795381439664    7.81591706100539   -1.92872070043760
H          -3.57440740761693    8.25931714376282   -3.33278166957351
H          -1.92250582345422    9.74998178987193   -7.67998462763352
H          -0.64803522380044   10.78744510506519   -7.01670687813301
H          -2.23664211908268   11.46469204261994   -7.36166314267327
H          -1.91467814599625   10.19346156245696    3.44854254367299
H          -5.10207730783577   12.09459189713423    6.64506388295862
H          -6.32304442003386   12.59034201381392    5.45581244438024
H          -4.99480685965968   13.67573750148729    5.86240388409390
H          -3.81287109506433   13.92892513508824    1.20300302799446
H          -4.01957251597084   15.80899297678694   -3.22205467133325
H          -5.13172638748483   21.87791692236326   -2.71574580592979
H          -5.69579535396545   23.08216824054584    0.98786545520796
H          -3.55662977244318   26.30839313045674   -3.92111784308464
H          -5.59346871797409   28.45171817871354    0.09424364458679
H          -5.00900981801474   30.63263228320083   -0.77270169709073
H          -3.99445989678159   32.04102231718656   -2.51939100831959
H          -2.98660599223759   31.01093778768570   -4.51688343980609
H          -2.98430794280276   28.56133039962844   -4.78266820293092
