89
 SCF done       -183.340700365610          0.000677106456
C           3.40814923190189    4.70875437594760   -1.59325087312651
C           2.23110719882124    4.52595225954357   -2.26584944495045
C           2.15053538791191    4.21814127651165   -3.63976226746142
N           2.01882573588428    3.99256251405149   -4.75757371149309
C           0.95341880629285    4.58539545424163   -1.67372904346159
N          -0.11619191997381    4.61215210829888   -1.25748618980815
C           4.73722699136003    4.44784388178066   -2.13062511800561
C           5.65074460742384    4.30852581012806   -1.04439636141532
C           6.97095113724666    4.02621694464246   -1.24865114364559
C           7.44752600008112    3.87710341338967   -2.57051056157519
C           6.54297349370455    4.03146936754274   -3.66109536189576
C           5.18013112789513    4.31846408145151   -3.41988654878972
C           7.03302597245798    3.88785833746442   -4.97520080168048
C           8.35161379224665    3.60293691941632   -5.20349693644405
C           9.24108514415799    3.44998239079333   -4.12933133453636
C           8.79866593074302    3.58353559702908   -2.84123892630988
C           4.93807963479848    4.53348316391950    0.22483318834683
O           5.36351642064846    4.43890911922077    1.35045740205541
C           3.56317882125202    4.97478666329702   -0.17526686646365
C           2.78653932068220    5.61237605370512    0.72789014178675
C           1.60624143279787    6.40154632723446    0.50413162740171
N           0.70184693622752    6.43126344066179    1.46885652573427
N          -0.38048330289348    7.12682179085013    1.41072915988526
C          -0.72635531735368    7.85672088467381    0.36224942360685
C           0.12578848518105    7.86465799227904   -0.77452557493373
C           1.36709004176853    7.16059174446204   -0.67640197599433
N           2.10849145193154    7.30312034554543   -1.77355586255711
S           1.28897083519064    8.19628145287057   -2.83321905051833
N          -0.02570284767284    8.45857891463857   -1.95348550687309
C          -1.99109789202066    8.52732892844338    0.40887230402438
S          -3.27018131925582    7.66938290952242    1.14879570526102
C          -4.43750177800777    8.85049939720639    0.66782114114872
C          -3.82917226210249    9.92536552453470   -0.02874235139085
C          -2.40746811540572    9.75234585762375   -0.12767018714321
C          -1.58427043898280   10.77051444282485   -0.67547039149268
C          -0.13043030150215   10.80578978389488   -0.48994599964571
O           0.49814549065158   10.20561971352769    0.35452956631209
O           0.48799331935657   11.66032102493717   -1.32621737948594
C          -2.20583558620615   11.85811003564049   -1.26648732548416
C          -3.58207655124801   11.98767377130181   -1.26883444775421
C          -4.42096607143000   11.07773984605487   -0.62994351187175
O          -5.70848082499309   11.36771398873756   -0.63470910166040
C          -5.79107069275916    8.57853422172431    1.01492052663843
N          -6.77096212615872    9.40789358500938    0.66131408309524
N          -8.03192584482642    9.19698612365320    0.88616911324513
C          -8.47755732158012    8.12326631183415    1.50529180866370
C          -7.53915427723982    7.19267830083060    2.03337969566822
C          -6.15372308674714    7.41881045088492    1.76377921519189
N          -5.38006120296441    6.49121354613455    2.31200712420084
S          -6.31126685222634    5.44464045232451    3.10318537589775
N          -7.73503498113269    6.12162848842472    2.79501199259306
C          -9.90362683309459    7.93814629717061    1.64764855936188
C         -10.51939782179858    6.76770070027961    1.37355454904651
C         -11.92035448708184    6.42693460687931    1.58018276532240
C         -12.81889733357809    7.13539316294581    2.32928139465114
C         -14.16079276632514    6.74646848152830    2.53076961110259
N         -15.26041821182170    6.48325906638299    2.72685774216123
C         -12.52378552923187    8.32730060016761    3.02604522328658
N         -12.35385867426920    9.28666116904959    3.63229470624607
C         -12.16830159504718    5.15403088241527    0.91820175547159
C         -10.94541068967667    4.67889377238320    0.36143092063444
C          -9.87331090876320    5.65065453930915    0.61831750962912
O          -8.73049958364636    5.59901288342306    0.21998150124973
C         -10.87452730695752    3.49815357847826   -0.32148977694606
C         -12.04391518094638    2.72255398811991   -0.48094173046124
C         -13.27245859435168    3.19329833516606    0.06761762038676
C         -13.31615367218273    4.41983422664368    0.76825387897068
C         -14.43528834109330    2.41481911041841   -0.10518641797572
C         -14.38859732496672    1.22856876812382   -0.78552470827453
C         -13.17848366209004    0.76589365517592   -1.32441055989259
C         -12.03100424926443    1.49644979260713   -1.17478207985896
H           7.64485541754661    3.91846555138082   -0.41180656955577
H           4.51912167586273    4.44096192266873   -4.26351030928934
H           6.34362433254447    4.00320695779157   -5.79860872686786
H           8.71683486049405    3.49322332749684   -6.21355680771411
H          10.27847955249159    3.22610373063984   -4.32780623475844
H           9.47896281606645    3.46669371434954   -2.01047971486045
H           3.11242803364201    5.56081967738336    1.76144743602481
H           1.42986721441192   11.70609820849548   -1.09992189680262
H          -1.59862070501617   12.63273709393969   -1.70644302494716
H          -4.05100434754732   12.84106931217848   -1.73205678429847
H          -6.26447258736152   10.67883051385204   -0.15595743803420
H         -10.46271735611642    8.81027706832155    1.95791928777604
H          -9.93592764555042    3.16121680358401   -0.73595550946202
H         -14.26235641855430    4.75325671028631    1.16409902117316
H         -15.36429676106440    2.77464433434806    0.31196307445916
H         -15.28448074049149    0.63969689044664   -0.91270999514928
H         -13.16038487022412   -0.17185708877045   -1.85919044679817
H         -11.09667153891661    1.14586832427555   -1.58810278786569
