93
 SCF done       -175.973511456665          0.000831918404
C          -2.18142648294340    1.23245157850074   -1.50807761143119
C          -1.23512851663079    1.67065084038867   -2.40011165535062
C          -1.43470411093845    1.73170517663144   -3.79104620154374
N          -1.55546301272250    1.82417469138517   -4.92973190318050
C           0.06451176879942    2.04839880136164   -2.00641559460524
N           1.14225432830041    2.31950439848172   -1.71658790910468
C          -3.43620943683233    0.57667812238693   -1.85251983733866
C          -3.87564287230891   -0.17204533412207   -0.72160529416980
C          -5.02815822161930   -0.90154954274323   -0.75513309016848
C          -5.81140131495281   -0.90102265337037   -1.93312959030379
C          -5.38040485682534   -0.14539424071982   -3.06121679086733
C          -4.17416859795305    0.59043107296997   -3.00351933521097
C          -6.17745404834903   -0.14394116057221   -4.22350948408602
C          -7.34599562616617   -0.85402942175618   -4.27288755550537
C          -7.77021629793306   -1.59784017490865   -3.16213103261644
C          -7.01857888881950   -1.62198835384166   -2.01852770943399
C          -2.93056627842512    0.03235144147980    0.39779480812912
O          -2.94951610175862   -0.48610776669219    1.49144970192930
C          -1.99826340899715    1.08360210280444   -0.08290985141719
C          -1.28365352681648    1.84192641705705    0.80128228710266
C          -0.83513497605451    3.15955883936383    0.60960514901457
C           0.00150871920560    3.89249658836527    1.45019954231765
C           0.15476453759514    5.23093884574410    1.05896742914036
O           0.91039167465768    6.18111992327806    1.66139401043312
C           1.89998944322878    5.69466265074480    2.54500092470313
C           1.31911056280337    4.77317625668049    3.60623695598610
S           0.77854183486386    3.19946832168201    2.85019252919335
C          -0.59153912872546    5.55601349831329   -0.07039900087981
S          -1.46747797314505    4.18381146352694   -0.65805375141730
C          -0.68013153150043    6.82053215850934   -0.68134969701147
C          -1.32334643712617    7.14301313553085   -1.87101442271779
C          -1.28126547718076    8.51683357769154   -2.15266174418827
O          -1.81371663568286    9.14914987350513   -3.21767259219244
C          -2.72783728211127    8.41583780337178   -4.00531785817756
C          -2.17513659697850    7.05765116595497   -4.40350447515946
S          -2.07734586906632    5.97225757871895   -2.93550894174703
C          -0.60194903657965    9.25900098676862   -1.18726456217070
S           0.02509469777598    8.22570043557317    0.06739864395070
C          -0.53143135058216   10.66656193897163   -1.19124137278197
C           0.10693828039268   11.50022648882240   -0.27377594631773
C          -0.12120229584368   12.85210770440002   -0.53374555208414
O           0.35016720779294   13.90739197298707    0.16266838967494
C           1.38620629021042   13.64539462290950    1.08551842801373
C           1.05258788333804   12.49388072092882    2.01970614292602
S           1.05206102462061   10.91989168476694    1.08994674128303
C          -0.97079575061207   13.07586286633743   -1.63663817791059
S          -1.42297332571431   11.56341584288955   -2.38420090516570
C          -1.36615109492557   14.36654215895787   -1.99554835541134
C          -2.25496146052084   14.77167397679971   -2.96314191590224
C          -2.66659584533855   16.13504974630640   -3.22126073967342
C          -2.14358616725049   17.28126779486200   -2.67599058693924
C          -2.60074152266608   18.57865940524620   -2.98386642648296
N          -2.92567212800283   19.66183027912401   -3.18600381727699
C          -1.07731355052359   17.34730967796705   -1.75619233471735
N          -0.21383287371667   17.50047399383341   -1.01331633021479
C          -3.74953271116113   16.08930857579010   -4.20223063148848
C          -3.95265125905983   14.73286336827151   -4.58500180834491
C          -3.01054281622265   13.87898454973459   -3.84440124420943
O          -2.90103960904699   12.66761521814279   -3.95325072990932
C          -4.90662145857210   14.36910530275494   -5.48949520495652
C          -5.72917989001168   15.36654279551763   -6.06015953389978
C          -5.53924780870121   16.72529695999612   -5.67875310210865
C          -4.53451904907078   17.07127021831896   -4.74390500839300
C          -6.37197175271205   17.71059423774250   -6.24604608215657
C          -7.34565099685480   17.37210519953151   -7.14650261131048
C          -7.53014569164318   16.03377500415328   -7.52252663751771
C          -6.73807353752820   15.05221217612546   -6.99109141918607
H          -5.34645024733810   -1.46793243448981    0.10751115151567
H          -3.87021613224073    1.16496131094445   -3.86491249186464
H          -5.84413498163656    0.42907414230549   -5.07648978159083
H          -7.94982917772572   -0.84614131509287   -5.16814563593317
H          -8.69588502362995   -2.15121858200893   -3.21675404200480
H          -7.34156231587055   -2.19325000768066   -1.16040336093258
H          -1.14942441416542    1.43429018397505    1.79879214876408
H           2.32801673390935    6.58857449986706    3.00473193243660
H           2.68057269238623    5.16748570673884    1.98051235394515
H           0.45974144263169    5.23683505759952    4.09113029673090
H           2.06884674548640    4.51111224112704    4.34902754942971
H          -2.89950634853096    9.04306858431633   -4.88312642383588
H          -3.67342711361580    8.28923250312257   -3.46183531563353
H          -1.17607225555230    7.15286733589189   -4.82877164870607
H          -2.83257424538925    6.55253309054708   -5.10672487344608
H           1.50272779712052   14.57720860004860    1.64454385826173
H           2.31888184791623   13.42849270087788    0.54833480826221
H           0.06855040579819   12.63170420526614    2.46813618694290
H           1.80590471387605   12.39011022559605    2.79665474220831
H          -0.91745458861720   15.13200391310840   -1.37377963714958
H          -5.03712899006172   13.33230756832712   -5.76245089301250
H          -4.41940513137656   18.10949965360875   -4.47644754533550
H          -6.22627416031193   18.74035816322733   -5.95424853507656
H          -7.97942633989353   18.13474080199368   -7.57384032451963
H          -8.30281339383129   15.78384079284533   -8.23435077388056
H          -6.87521928152208   14.01907747776114   -7.27607146300136
