87
 SCF done       -159.765227823510          0.000785618689
C          -2.17966781726176    3.36885024443300    3.23156734745653
C          -1.40304713951538    4.49539540100024    3.35845573007267
C          -1.69352487188448    5.56064381762871    4.22670949744108
N          -1.92258631607459    6.48848461926552    4.86581970599582
C          -0.19140220770510    4.66770902085958    2.65906957053022
N           0.83821870569392    4.80194697749209    2.16829658420667
C          -3.18521938562340    2.92429279265140    4.19070304737454
C          -3.38425700559540    1.52420577471954    4.00933457951493
C          -4.23315217907981    0.81414395871171    4.80642511922681
C          -4.94424856499964    1.48515815344446    5.82829233362252
C          -4.76057821287766    2.88663099343683    6.00371074937954
C          -3.86376885033581    3.59538889878720    5.17041503754642
C          -5.48116402577686    3.54328863792644    7.02151670521791
C          -6.34003789421084    2.85093097332461    7.83105031862571
C          -6.51876871156089    1.47061578500392    7.65902662362405
C          -5.83532544503320    0.80274007466565    6.67926047091042
C          -2.56646960934712    1.05816181374663    2.86882194289432
O          -2.45754720254980   -0.07330728115241    2.44928874846155
C          -1.96262201198925    2.28809124597786    2.30174173243041
C          -1.49407259630870    2.28345240370672    1.01576503233486
C          -1.33516041739135    3.35843263964499    0.12925962444012
C          -0.76688951791753    3.26301503985457   -1.15526235676922
O          -0.25992851313466    2.08781711827194   -1.56036362219123
C           0.34902680537541    2.04092077013448   -2.83205682812105
C          -0.79409260097177    4.46747751057426   -1.85996234666556
C          -1.38499793282322    5.49709371148894   -1.14630112787249
S          -1.93350639448679    4.97206368224351    0.40726084220063
C          -1.53173908195964    6.84776376187695   -1.51736343018941
C          -1.98752928885336    7.86684514585221   -0.67127397946974
O          -2.37283761943183    7.54201169745733    0.57529093617208
C          -2.63831759517159    8.58929547605617    1.48627702214934
C          -1.96042818307018    9.12523067071683   -1.27412352683301
C          -1.50071364258963    9.08834850694535   -2.57927408426684
S          -1.08967196131702    7.47469838604505   -3.07596412481034
C          -1.34901123661048   10.17517778157575   -3.46324605108790
C          -0.88734684802188   10.10440115129831   -4.78670229766113
O          -0.56130392417326    8.89607347019546   -5.28694857129373
C          -0.10233237367318    8.85152965172223   -6.62248037394485
C          -0.83041411425839   11.34310954188879   -5.41818134013346
C          -1.23725175190034   12.39323072952565   -4.60814780211158
S          -1.71343404308360   11.80558520358077   -3.02542628199106
C          -1.33938690769749   13.77961299460435   -4.81736479231072
C          -0.99213110315350   14.57052248748329   -5.88287142292128
C          -1.17773979835845   16.01332645651996   -5.89264155695455
C          -1.90277248493974   16.76526880762124   -5.00281053486563
C          -2.04251215222469   18.16678157485025   -5.08724033483628
N          -2.19802711787587   19.30463849852164   -5.08836765958970
C          -2.64443168062407   16.28339723588865   -3.90387068920630
N          -3.29095933590201   15.98849116010515   -3.00063219252817
C          -0.49777778753284   16.54574455609317   -7.06810882653745
C           0.01491383911480   15.45362714540169   -7.82151652180044
C          -0.30304195500137   14.18961566626912   -7.13745355625318
O          -0.03131788230890   13.07860590446268   -7.55249666240153
C           0.69732466516645   15.63614420717365   -8.98945329371776
C           0.91169165531557   16.94976781405701   -9.46310070288962
C           0.41082851298514   18.05021142181170   -8.71000776099450
C          -0.29874622729441   17.82772367411150   -7.50709063971247
C           0.63643581282294   19.35745742082159   -9.18651661780681
C           1.32278065978685   19.56943583009144  -10.35126542356188
C           1.81412567285860   18.48489270937895  -11.09283186898649
C           1.61252662412391   17.20278742083299  -10.65841956745017
H          -4.36279372188831   -0.24824550079561    4.66207374525296
H          -3.74256528439329    4.65729403479925    5.32008134099231
H          -5.33787350567421    4.60608962680667    7.15185433174561
H          -6.88615000060900    3.36340670397275    8.60905011004093
H          -7.20036546990615    0.93901143979100    8.30632215466774
H          -5.96907155573295   -0.26050228704161    6.54214201939862
H          -1.31498907674718    1.30388136183871    0.58347453563695
H           0.70175513175133    1.01845347901241   -2.95264534578372
H           1.19675203333859    2.72946052815803   -2.89001434654772
H          -0.36773992522079    2.27641991551853   -3.62449680466515
H          -0.39471910220039    4.62267269807100   -2.84558516950359
H          -2.79738269452951    8.10939508728110    2.45045738625321
H          -3.53557105687466    9.14357201016656    1.19667267528350
H          -1.78948745042578    9.27427319940154    1.55727096496473
H          -2.26106678488812   10.04368752321970   -0.80366051615357
H           0.10829928600520    7.80371315063704   -6.82633328763896
H           0.80875726625819    9.44271113093078   -6.74698715097828
H          -0.86699708755972    9.21536110582544   -7.31406215302236
H          -0.50279945117138   11.50869082620033   -6.42767979384730
H          -1.74873764958409   14.29918900893733   -3.95921245712075
H           1.07214389670757   14.78835771791396   -9.54375935963444
H          -0.66121343692207   18.68351285339645   -6.96074970161125
H           0.25487338514709   20.18916840076984   -8.61256059509468
H           1.49077730799098   20.57471059845232  -10.70764799218191
H           2.35374809212598   18.67017370276579  -12.00958371176966
H           1.98910542312218   16.36359274541248  -11.22505140979033
