81
 SCF done       -136.578006164318          0.000961232466
C           2.56131220256554    2.74066273987288   -1.28932881739368
C           2.69441518693214    4.09712166812382   -1.11904476320238
C           3.48632574779519    4.91721094223971   -1.94515987883482
N           4.10189302118896    5.63047688816836   -2.60191724936773
C           2.11526258798101    4.80634425151403   -0.05087239126613
N           1.70463131195250    5.42514692058195    0.82613730855826
C           3.34668010548292    1.92738928091963   -2.21188723665579
C           3.28725235587637    0.57002492057492   -1.77937158381882
C           3.96247660460656   -0.41927324080581   -2.43274631159842
C           4.73213496973929   -0.09267099985275   -3.57312852924012
C           4.77950686360197    1.25877384387020   -4.02084045951648
C           4.07492579995452    2.26487603992805   -3.32005711907095
C           5.54312382183486    1.56978799510868   -5.16391375838564
C           6.23281315341803    0.59491262974551   -5.83191682779768
C           6.18848963839377   -0.73503129437590   -5.38876809449130
C           5.45416561619641   -1.07129862176501   -4.28377449661248
C           2.40838028850609    0.47540327832490   -0.59656742870551
O           2.15975380760884   -0.50431679257400    0.07084803516900
C           1.83417118649961    1.83495909003147   -0.42999369309042
C           0.74202627466692    2.03222676316805    0.36489637905396
C          -0.14819121633279    3.13254178658672    0.35207984774549
C          -0.51639682116553    3.79988920960671   -0.79549118277881
C          -1.39794152601007    4.89524085915418   -0.63894674683196
C          -1.78759035868274    5.18599779932937    0.65512937729243
Si         -1.04625754218335    3.90812530004719    1.80404569360588
C          -2.57338721510510    6.30781520235920    1.02460081323192
C          -3.30683089932505    7.08367302271517    0.14296386944161
C          -3.99507390949735    8.18633632677526    0.69532095623744
C          -3.86906633840825    8.37447484527634    2.06295224333157
Si         -2.77440142473159    7.01859429747191    2.74312105341393
C          -4.44136855933944    9.45656215714182    2.77857707208145
C          -5.39317940783578   10.32822564013223    2.27461402957878
C          -5.77485299617656   11.40031609302008    3.11219085124442
C          -5.14461964946591   11.47145055473930    4.34303420396698
Si         -4.05438151966037    9.96274193101817    4.53888977020723
C          -5.32469824782711   12.49632346181684    5.29448295951215
C          -5.62985768125383   13.81785764678089    5.07647918431201
C          -5.84412306113146   14.79993589004217    6.11760998349634
C          -6.15967981934291   14.53788883246465    7.42847059990720
C          -6.38361361144878   15.53442324217347    8.39873964246450
N          -6.56921318306786   16.30099188202416    9.23400198749714
C          -6.34250116319631   13.25050010116467    7.97191468573367
N          -6.53163924762134   12.23855915891370    8.48281291571877
C          -5.75779444486180   16.12520273285678    5.51497544075851
C          -5.56124066894694   15.96579063738948    4.11465314357141
C          -5.51640770523884   14.52918768886675    3.78075181878166
O          -5.36774168278997   14.06299764542223    2.66913210402337
C          -5.44404120960186   17.03477521580134    3.27521628829187
C          -5.51831329695539   18.34105847357760    3.80963617245260
C          -5.70848626476745   18.50981687966070    5.21100034784827
C          -5.82730376958110   17.38110441671936    6.05554932131918
C          -5.77636694773646   19.81716834487637    5.73324075502232
C          -5.66440077779529   20.90646105798882    4.91242612975408
C          -5.47856645261547   20.73884843352930    3.53241995176643
C          -5.40734164946956   19.48308920107078    2.99289784192673
H           3.91288007804012   -1.44035934178650   -2.08476966055106
H           4.12124612923166    3.27960373021405   -3.68378152245750
H           5.57670501951359    2.59628892004588   -5.49844560182424
H           6.81725251574046    0.84377619859220   -6.70504746325378
H           6.73888906762272   -1.49198583844392   -5.92726905754760
H           5.41641081248403   -2.09411554057888   -3.93843935954923
H           0.52168802311493    1.22710659027317    1.05909425566063
H          -0.18611534440927    3.49231582571443   -1.77896482854094
H          -1.68876787464443    5.48171105936874   -1.49724290101133
H          -2.07699363595366    3.00175872396069    2.32410835512273
H          -0.17912849458891    4.41431565129599    2.85778171768187
H          -3.38437663575495    6.86958072806951   -0.91272597639183
H          -4.55919295871762    8.84852491452830    0.05570490924539
H          -3.48106248010646    6.11460720047237    3.65407695340415
H          -1.52721125725558    7.50549954972176    3.32799686809284
H          -5.84673294729895   10.21651726144435    1.30168198730656
H          -6.54712406239354   12.08618452642184    2.80568741722314
H          -4.58364764017484    9.01503825720068    5.52002457650761
H          -2.64417105007348   10.26369448265985    4.78551666290322
H          -5.10442002251880   12.20924649414656    6.31660445642837
H          -5.29555838177571   16.88644452949328    2.21575945709821
H          -5.96410297092372   17.54147978708773    7.11324041317324
H          -5.92073287349540   19.94139598909178    6.79652460528222
H          -5.71849421753483   21.90385258008000    5.32258838626524
H          -5.39178239108452   21.60907978514669    2.89893416285068
H          -5.26398668245574   19.34722566409153    1.93072497813261
