90
 SCF done       -163.210414629017          0.000417836735
C          -0.75748221270444    0.46420863732872    0.56675658457835
C          -2.11430488220683    0.61826206233085    0.69914891430623
C          -2.87095976596860    0.04030692277187    1.73665086700783
N          -3.52730038152889   -0.38952959749383    2.57514239726145
C          -2.91123067437091    1.29531000872418   -0.24543198547183
N          -3.61061460857268    1.78975141027041   -1.01057900258737
C           0.06680449264494   -0.47737798947399    1.31521683876228
C           1.25800706054493   -0.72129140607183    0.56988933679516
C           2.20389662508836   -1.60435888162902    1.00299482689759
C           2.00336681752712   -2.28576783124562    2.22554257511208
C           0.82311121250837   -2.03254896545623    2.98248140815385
C          -0.14424188753037   -1.11780661437861    2.50570384854415
C           0.63875173763146   -2.71446671779969    4.20213305705204
C           1.57209454190597   -3.60782582495609    4.65297457380910
C           2.73281240671995   -3.85825550998610    3.90635856334074
C           2.94363293100505   -3.21148707530523    2.71868907980592
C           1.25003503391266    0.11238610432070   -0.64841535709905
O           2.06695703434888    0.13689571065415   -1.54141681344598
C           0.04495773626128    0.97490997473280   -0.51916110319256
C          -0.10190085969984    2.08316627719891   -1.29849002552563
C          -0.91151849332912    3.22476045244477   -1.05749391078386
C          -1.32304614043349    4.03460749304580   -2.09521311356042
C          -2.08936778728423    5.17703055072990   -1.75099432036559
C          -2.26272411273630    5.40040987154141   -0.40508682345007
Si         -1.38748549307659    4.04721807780482    0.55862591716528
C          -3.02163794696311    6.46243459271281    0.12894154767884
C          -3.17165299944864    6.77640002990022    1.47263793204806
C          -4.04074178123840    7.84168989211965    1.67748624851752
C          -4.57502230916486    8.35212780988305    0.47642944078474
S          -3.97990196523999    7.53596572805171   -0.89775997504961
C          -5.49086209731914    9.38185835689512    0.79138148073470
C          -5.53379199444200    9.53274311490262    2.19315131892551
C          -4.60903391279607    8.58268304647502    2.79177810365182
C          -4.32914651703934    8.42263150416920    4.11716486165086
C          -4.93772327050494    9.21459664445419    5.11343552173037
N          -5.42845512707348    9.86126089191284    5.92315514668225
C          -3.40359362470149    7.46169061183174    4.57548432017444
N          -2.64856277407987    6.68224972070362    4.94587373102222
C          -6.45069932732651   10.49065271927829    2.60901277394005
C          -7.12297593065904   11.07865387938880    1.54467806382976
S          -6.57768313794617   10.43329049428378   -0.00120288197013
C          -8.16926072264655   12.02944144216749    1.55989599718161
C          -8.68163913278713   12.58989009221877    2.71051730247220
C          -9.80644397673851   13.43931217890641    2.54121040189164
C         -10.26925209003532   13.59112549254425    1.25080868349822
Si         -9.11845806491438   12.68951238055410    0.08475014759821
C         -11.41761515641045   14.32347103702433    0.87071902140043
C         -12.58434038472965   14.47401778835338    1.57170607674843
C         -13.72944919158241   15.24463090031797    1.12952053581867
C         -13.71628813741448   16.24980968303257    0.19561204261591
C         -14.85531464177394   16.98848085760356   -0.18290054866056
N         -15.74905877430399   17.61615480589472   -0.53783833139523
C         -12.56487313174284   16.70236217476132   -0.48034368454037
N         -11.66805340465690   17.13702400981803   -1.05181417378141
C         -14.88497104203423   14.82293351150723    1.91141315669625
C         -14.45033936953846   13.86710373420632    2.87253868488401
C         -12.99764707381208   13.65237272612918    2.73762317895144
O         -12.31933811209344   12.91129299160946    3.41838418339172
C         -15.31450543922847   13.28469174209263    3.75352541062289
C         -16.68217605992829   13.63774160654520    3.71147339798185
C         -17.12668584521979   14.58896287665479    2.74862522289051
C         -16.20645048957717   15.17664281564216    1.84963341543191
C         -18.49432837096078   14.92820576301351    2.71187538733851
C         -19.38122850091785   14.35801081383985    3.58422530291259
C         -18.94202102547356   13.42267986105608    4.53276555081109
C         -17.62091608179317   13.07076606476536    4.59537354228751
H           3.09483052382965   -1.78497164982295    0.42006737420395
H          -1.02712029797318   -0.93821573159084    3.09950369220453
H          -0.25843477717054   -2.52047222885131    4.77143923037895
H           1.42041128612022   -4.12711326492039    5.58738299602849
H           3.45922963969008   -4.56609251302814    4.27669063680337
H           3.83573322211594   -3.40073281120214    2.13969547848449
H           0.54419558581000    2.11252506037717   -2.17286214763636
H          -1.13381318988887    3.78900778035787   -3.12990955672203
H          -2.50608935206095    5.81906058691350   -2.51365090125171
H          -2.28016054624867    3.37816094229632    1.49850396021956
H          -0.18683306336591    4.53556199953965    1.24194555288399
H          -2.66303661948566    6.23032407027876    2.24578121019178
H          -6.64244329880827   10.74768201008869    3.63425072017699
H          -8.28657637138851   12.40047862238310    3.69626130945238
H         -10.23027829801470   13.95626804532682    3.38590228628546
H          -8.30305631243244   13.58618308807308   -0.73336313497618
H          -9.75184272549196   11.64205822758302   -0.71653759622376
H         -11.38987163082685   14.72369431491840   -0.13661884357346
H         -14.95915767788442   12.56312030388323    4.47425801270517
H         -16.57419291734471   15.88810647599532    1.12724117104895
H         -18.82772515296202   15.64993535290036    1.98062903781726
H         -20.42681465405402   14.62499722133299    3.54805170068353
H         -19.65532086112001   12.98201570454080    5.21320051791365
H         -17.27645391030481   12.35080486832413    5.32341342236489
