93
 SCF done       -208.591132905433          0.000207990338
C           0.51688281398737    1.04531715080948   -0.12096328648083
C          -0.61173719578482    1.22044770115644   -0.87785509971627
C          -1.10317116612377    0.26466711002325   -1.79141171701763
N          -1.54626066532029   -0.47292062625850   -2.55059898796273
C          -1.45323417102615    2.34343242030806   -0.77693695636236
N          -2.15853348691767    3.24702224526219   -0.70851166275283
C           1.27733895334027   -0.19645585421007   -0.02807007014497
C           2.04886732420553   -0.17052644421515    1.17052236962291
C           2.83226456100522   -1.22524661561431    1.54251406335208
C           2.89006227416957   -2.36692865816259    0.71198056068366
C           2.13851717737934   -2.38941755187711   -0.49872552263679
C           1.32942089767014   -1.28589464928057   -0.85478988176526
C           2.21357816945256   -3.53004132700628   -1.32351623171101
C           2.98906618296716   -4.60031570025287   -0.96919268551760
C           3.72612029069888   -4.57874086904573    0.22430327109002
C           3.67777291886484   -3.48603929380615    1.04683316032194
C           1.85293540723499    1.12160328067155    1.84615510160540
O           2.29581549111750    1.49060000549180    2.90863047829386
C           1.01819529198108    1.93455235135148    0.90619076418832
C           0.94396924303208    3.27527466050400    1.11175591640888
C           0.53846915888703    4.31241955889120    0.23458678842155
C           0.51711607878846    4.34969073204492   -1.15046850769884
F           0.94234312109963    3.33573455476270   -1.91084442561874
C           0.07387638416151    5.56520328169588   -1.67474749178005
C          -0.25745882350416    6.48554445630134   -0.67238834198605
S           0.02531703773076    5.85114554004588    0.90117696557366
C          -0.75236711591159    7.68022638869627   -1.20712622288093
C          -0.78814625729068    7.64828884176571   -2.60569962614576
S          -0.20671422799549    6.15828267395797   -3.28437607651344
C          -1.30673197371071    8.82953296045983   -3.14611701444137
F          -1.44991176694231    9.05020990744287   -4.45817528305348
C          -1.66568966877587    9.76155716379835   -2.19073228008782
S          -1.34742245067963    9.17085886282796   -0.57445776163930
C          -2.25460430431994   11.03617454315926   -2.42214957832388
C          -2.58946728571668   11.99109838401922   -1.48125169547076
F          -2.35421293575455   11.82815031172650   -0.17441536590589
C          -3.19549698795882   13.12720652891371   -2.03110791161153
C          -3.32552184151607   13.03125200496650   -3.42026918414576
S          -2.68966590904694   11.55329302053725   -4.03761776500856
C          -3.95950778954322   14.15475558201396   -3.96272899710178
C          -4.29963469126556   15.09052484589719   -2.98287708530824
S          -3.83817836390623   14.60555888152830   -1.37726560452806
C          -4.95640606083960   16.21057692923874   -3.51592440585161
F          -5.33098124614005   17.25062151709142   -2.77178057125346
C          -5.13193811180897   16.13950321214629   -4.88350635224735
S          -4.44843085396897   14.66225234032267   -5.53506447732917
C          -5.78342704754957   17.04964555801696   -5.77040378144323
C          -6.72914444462962   18.01781851915229   -5.49685026145305
F          -7.21043084490158   18.26191043170098   -4.27830641671657
C          -7.18685269825622   18.68585012929339   -6.64301501744269
C          -6.58069112589449   18.21630366838074   -7.81186338490147
S          -5.44331828364139   16.96170507515698   -7.48703009824174
C          -7.07044854029918   18.86161242307685   -8.95207733194222
C          -8.04474616106489   19.81580973167318   -8.63253690332779
S          -8.36514860108204   19.93147932842409   -6.92660193915401
C          -8.55152844584516   20.45992824830786   -9.76641338874484
F          -9.57423492685933   21.30810999678905   -9.71953524663609
C          -7.98041006417388   20.02017679063240  -10.94989155441315
S          -6.80713572155427   18.75092549028089  -10.64878874728050
C          -8.28645191126120   20.39201875973832  -12.28603406752095
C          -8.68138061395311   21.63195575652299  -12.68325166823601
C          -9.19480472284892   22.00394705458620  -13.98882431936731
C          -9.60376872341555   21.14274518139298  -14.97308034794669
C         -10.12758815058532   21.55421805055031  -16.21668863227056
N         -10.55483203737115   21.82413351812001  -17.24739574832464
C          -9.57851581994691   19.73560358508509  -14.87629727952846
N          -9.59968153786036   18.58760702018744  -14.86061415244033
C          -9.28462584344493   23.45735432569133  -14.03244393800383
C          -8.85045063497196   23.98093276240690  -12.78071641825795
C          -8.44853345537041   22.87692690057946  -11.89454082858363
O          -7.92879529989274   22.96619167199507  -10.80501807705670
C          -8.83460427208190   25.32197060519859  -12.52609795872773
C          -9.27074682298606   26.21834975699232  -13.52727087672192
C          -9.70189806743850   25.70330536810157  -14.78412860856037
C          -9.69864992187184   24.31009657976565  -15.02197728311006
C         -10.13207510759815   26.60709246831657  -15.77704826902451
C         -10.13995326959656   27.95476115252021  -15.54056771577717
C          -9.71665609539523   28.46066705681143  -14.30233099294153
C          -9.29134217984355   27.61111002459929  -13.31718444429056
H           3.40195941438250   -1.18929056967066    2.45918315255774
H           0.77878902977506   -1.32432937192368   -1.78160295117318
H           1.64157655557833   -3.54318429191322   -2.23958321736776
H           3.03821102652543   -5.47030293855150   -1.60668935374739
H           4.33273731316910   -5.43197483304644    0.48842361837034
H           4.24354166397333   -3.46362376448388    1.96671459269953
H           1.30042980128810    3.60569127073586    2.08343224228964
H          -8.16683138613418   19.60634081528815  -13.02140667123115
H          -8.50068539820876   25.69346861354338  -11.56873237103778
H         -10.02322873346368   23.95161879028762  -15.98593511706082
H         -10.45834553222275   26.21244210986333  -16.72808053100287
H         -10.47314365550941   28.63880047139050  -16.30656640487004
H          -9.72926845288515   29.52694830161294  -14.13302049530343
H          -8.96436367860516   27.99489004748571  -12.36191610664075
