116
 SCF done       -242.331794371159          0.000564181554
C           0.33484674768118    1.46536087300181   -1.13749105048493
C          -1.02528791733964    1.56728466837263   -1.00343205336539
C          -1.81793900039549    0.64371732746656   -0.29154895049175
N          -2.50993322101086   -0.07591673313004    0.27426625996982
C          -1.78944343739537    2.57172347193902   -1.62475787261963
N          -2.42552862977337    3.38407942536429   -2.12878101745578
C           1.13848385275591    0.32535090211515   -0.70768594690738
C           2.37550614891828    0.34700083788891   -1.41589545404255
C           3.32055648335267   -0.62259445447727   -1.24045679229680
C           3.07211043342650   -1.66817832055981   -0.32309220639344
C           1.84497093578796   -1.68551226962822    0.40127383127050
C           0.88034062146534   -0.67268647535036    0.19226897873820
C           1.61462512219211   -2.72864347888864    1.32084806200348
C           2.54856294670682   -3.70970432151617    1.51536823058497
C           3.75555551191572   -3.69272822088397    0.80063638513358
C           4.01142306181548   -2.69412305449018   -0.09942860883078
C           2.42064883473638    1.53885721752187   -2.27730274872319
O           3.27803852086046    1.86639153002995   -3.06434942642578
C           1.18908886552030    2.31737521168020   -1.93603853944541
C           1.12872208628034    3.61627068251826   -2.33259389570607
C           0.31544177912018    4.68388232629503   -1.88175472273460
C          -0.36337783105475    4.85499932688582   -0.68443968540334
F          -0.32932652689972    3.95592862604028    0.30407405314323
C          -1.01126215524258    6.08650308842771   -0.57472780486096
C          -0.83204203051055    6.88315481455381   -1.71261851428088
S           0.15743378842875    6.11215688298308   -2.88835181915188
C          -1.49081984184055    8.11130949371863   -1.59691591197430
C          -2.16102327514347    8.23345649538915   -0.37518732016153
S          -1.99447531324657    6.83747974207112    0.64782612136556
C          -2.80534237683759    9.47035760787022   -0.24536074071580
F          -3.50624531544002    9.81970298066159    0.84013599316525
C          -2.63966496104203   10.29602762361742   -1.34065937397050
S          -1.66862135303554    9.52236332084925   -2.57194609363733
C          -3.12143659161123   11.62464864344707   -1.52939022689770
C          -3.87196031953187   12.38080272028949   -0.67343637028515
C          -4.13805198906393   13.68359665302928   -1.15827303498228
C          -4.88835982992943   14.70573475140907   -0.53966240827233
C          -5.47756631495539   14.56367965002977    0.77572769149081
C          -6.67636771483637   15.05612336052910    1.20911934352119
C          -6.91817121812421   14.78367996463281    2.57227513549548
C          -5.91631797159541   14.10076100424845    3.19909440459338
S          -4.63758215633795   13.77133308433552    2.08205947261791
C          -5.83350856619014   13.65506039803997    4.61241518615849
Cl         -8.36393304343498   15.27987354938085    3.36415126307643
C          -5.01814997970035   15.89457558612839   -1.25203942553556
C          -4.44353879180440   16.10587725975038   -2.52954872978627
C          -3.72395254972829   15.07209299796667   -3.16277547080363
C          -3.57410078080473   13.89345196273135   -2.44259713836805
S          -2.72037477637261   12.48369174813405   -3.00018014716755
C          -3.18533971106892   15.24369800955776   -4.49605808810442
C          -3.78492569651906   15.83661197363972   -5.57048912740100
C          -2.97142301830811   15.82237049265334   -6.72384182111106
C          -1.75287309334548   15.23328432561672   -6.54722145511940
S          -1.59706008930628   14.66555066072678   -4.91940062024480
C          -0.65433359366818   15.05489491771438   -7.52918763723945
Cl         -3.49093079024715   16.49489468143044   -8.22137888616618
C          -4.62797145176020   17.43258423283766   -2.98528367266952
C          -5.33064510279019   18.21484515519853   -2.11224330266232
S          -5.81387627141236   17.33418262901167   -0.67738403521913
C          -5.67426677501541   19.59154477776320   -2.25186920765543
C          -5.35745634709325   20.44436530802894   -3.29327498031342
F          -4.65965086680893   20.06249654087265   -4.37029079436334
C          -5.83418179806329   21.74706099514451   -3.11338798157617
C          -6.53530534560598   21.89628999373446   -1.91138893343985
S          -6.59234391103605   20.42146325195652   -1.01722080073942
C          -7.00949938026698   23.19963871199723   -1.72695831556790
C          -6.65268549671055   24.02555868546514   -2.80602875991719
S          -5.73923546740007   23.21027653005901   -4.04779361369133
C          -7.11643398183145   25.32027680192416   -2.63171212342626
F          -6.91540553620516   26.30708675120998   -3.50654548786537
C          -7.83275212538170   25.51665477745662   -1.44593003757270
S          -7.92887699856870   24.02458699225684   -0.52197351093404
C          -8.36149563017385   26.77744077810761   -1.11223515663834
C          -9.12062759591007   27.14456392421818   -0.03604618043611
C          -9.64844722004164   28.47076450869384    0.23636701256621
C          -9.36924285282505   29.62944726745021   -0.43852291705935
C          -9.91934287277807   30.88646018179007   -0.10795654186271
N         -10.33194761119859   31.93638066792785    0.10417148475353
C          -8.48561180691586   29.75777139839347   -1.53162929790391
N          -7.77597902459344   29.95582632813004   -2.41215078402067
C         -10.51817131476132   28.36249479661598    1.40388778703424
C         -10.48093632841747   27.01885624957778    1.87691444411384
C          -9.59665680885526   26.22951275348419    1.01117199900593
O          -9.32145212556445   25.04784328103881    1.13506564761795
C         -11.19545134474089   26.61372214238794    2.96746740298136
C         -12.00305192490756   27.55259258868355    3.64697421761434
C         -12.05162746330279   28.89728166661711    3.17830298582893
C         -11.29602952057979   29.28738071732916    2.04823737717265
C         -12.86482406401755   29.82466855562397    3.86044240459579
C         -13.59543116599063   29.44414233393907    4.95329234253747
C         -13.54609409113461   28.12027168995536    5.41432006325602
C         -12.76647613828542   27.19447238634860    4.77528923535274
H           4.24798471220617   -0.59143063691908   -1.79278348471083
H          -0.03580552569911   -0.70357741302949    0.76104834652841
H           0.68265757234896   -2.73923272903268    1.86664153751527
H           2.36205535384991   -4.50500700003966    2.22137690488716
H           4.48163859581169   -4.47434133202979    0.96702808383002
H           4.93903601646217   -2.67549064099909   -0.65263655737120
H           1.87283687499298    3.89314925167926   -3.07471186762655
H          -4.22651422201328   12.01285126258795    0.26999604016560
H          -7.38654778688393   15.56050177141242    0.58083427502145
H          -5.02722153243069   14.17264027685527    5.13212554530253
H          -5.63377734752414   12.58570111180681    4.66532029720187
H          -6.77149646376484   13.86807490625575    5.11897076245335
H          -4.78370114205429   16.23199056841586   -5.56146270627995
H          -0.96840348702885   15.42605602020004   -8.50144915148564
H          -0.38760304043786   14.00265142724697   -7.61840522394169
H           0.23465655362837   15.60044580038538   -7.21361734575126
H          -4.22237847002130   17.79746387994896   -3.90928775205586
H          -8.12583966239856   27.54208576698590   -1.84432819659657
H         -11.14678333263295   25.58919173127269    3.30516133779050
H         -11.35777579137243   30.31230668777422    1.71921288619144
H         -12.89907596479110   30.84308984073125    3.50225221769395
H         -14.21566777080357   30.16201874000219    5.46862455498407
H         -14.12909569781608   27.83735126768988    6.27790009865610
H         -12.72465865063266   26.17342754747229    5.12527815760701
