130
 SCF done       -277.350568294220          0.000714676527
C           1.66369287036443    0.80905063058284   -0.59048501495115
C           1.12556858925671    0.48039879469112    0.62285005860633
C           1.73669922788274   -0.39004672024263    1.55059288357633
N           2.17642066917050   -1.07859065069025    2.35614317316116
C          -0.12460684134629    0.93898665112751    1.08166662431312
N          -1.14470469955552    1.26444772844941    1.49745393153849
C           2.85185549395640    0.21832804841316   -1.18312849982650
C           2.83354384662373    0.45792643929456   -2.59010773421894
C           3.82018921482604   -0.01328566177985   -3.40886308256377
C           4.88812303644936   -0.74830177789310   -2.84728509615247
C           4.92199762616096   -0.97047197263044   -1.43886800661678
C           3.88615072282171   -0.47669855112966   -0.61499463667531
C           6.00110185337723   -1.69422333563639   -0.89117358952721
C           6.99611476319595   -2.18182755439819   -1.69380630121467
C           6.95935968347361   -1.96712126248968   -3.08007787520249
C           5.92862059328386   -1.26542707865446   -3.64429773728075
C           1.65518645559109    1.26584542173467   -2.93420552662550
O           1.26264813286364    1.61419416208640   -4.02070453083402
C           1.04969356379064    1.64025103694972   -1.61282825489982
C           0.22740152765800    2.70778496609532   -1.55274363371284
C          -0.23684249702491    3.43976960366932   -0.41435800106917
C           0.39031811404537    3.79822271498144    0.76755182271214
C           1.79750999142329    3.53630365326966    1.05594603940384
O           2.60105624496756    3.08980223596693    0.25914401638527
C           2.17433838872040    3.84725928068849    2.44932715523374
C           1.30815402925005    4.52397696957731    3.34595868108410
C           1.88173401858809    4.68572803989192    4.58489663645712
S           3.45938893204648    4.01077102737033    4.68370716031814
C           3.36918831552374    3.51439088935815    3.04239556409508
C           4.52175238302658    2.78723073489597    2.42419011696205
F           5.11121684212167    3.48134868310093    1.44672776525107
F           5.47574951995231    2.53939259356574    3.33759546227350
F           4.17193286658330    1.59951232032076    1.91709506244031
C           1.28945685942195    5.34812257766115    5.79080796118153
F           1.07280500207030    6.65374579444367    5.60846946983458
F           0.13705056627720    4.79363735829870    6.17356299031747
F           2.12467386406171    5.24908796527198    6.84118272531500
C          -0.04039764439955    4.97919092765001    2.95597101352134
O          -0.71449869234879    5.67666340065370    3.70179385328813
C          -0.46466518253324    4.52326776055090    1.65588542513893
C          -1.75197376432363    4.71351006588042    1.14163681905477
S          -1.86738271819959    4.02412206325177   -0.45672080702095
C          -2.91814733894292    5.29594273919871    1.68304727830817
C          -4.15257181257953    5.26684647024456    1.03035143831902
C          -5.15581755418921    5.86522462346931    1.76883951065800
C          -4.68397537984746    6.37228274156650    3.00057645234067
S          -3.02018049851265    6.10575161981144    3.24589662012245
C          -5.78725832669718    6.94463964503367    3.68334204900835
C          -6.94337836151074    6.79640744908219    2.89666884248490
C          -6.58357366336746    6.12235664541119    1.66078713536281
C          -7.40408600687736    5.80483211028712    0.61902653261250
C          -6.92292583116425    5.15762331489388   -0.53885570276833
N          -6.52821769224029    4.63676760252192   -1.48085719635532
C          -8.78171623164123    6.11010117802446    0.62602012035362
N          -9.90092484279923    6.35837890658571    0.62754806788521
C          -8.08542840166109    7.31913311963854    3.50361830109905
C          -7.80491572116334    7.87007100636813    4.73912726259501
S          -6.10535943057056    7.73899965318953    5.16117528480927
C          -8.72338612874377    8.48005787852834    5.63626035900593
C          -8.44833910517021    9.12042861304724    6.81180398477592
C          -9.59704243963425    9.61240794539397    7.47373445239112
C          -9.65967696921153   10.29930499153965    8.70184082045706
C          -8.46774878381983   10.53016212020100    9.49272028303871
C          -7.44790289135911    9.65857277354667    9.75136793949249
C          -6.44124535668134   10.22611377916838   10.56123965916289
C          -6.67196261451856   11.52294342098714   10.92041045749153
S          -8.17521446350301   12.06646409733610   10.25858447784728
C          -5.82995681055740   12.42238545009094   11.74869873486285
Cl         -5.04398050909571    9.34088734815023   11.04420894626779
C         -10.91690975654786   10.72792997984406    9.11805346129084
C         -12.10282276056640   10.44926067209995    8.38718397298948
C         -12.04914664054377    9.72374919279899    7.17178610565700
C         -10.78432317321774    9.34830423448689    6.74036606192742
S         -10.43795639350693    8.46410568568863    5.27742329972326
C         -13.23576800206995    9.36600970248226    6.42557951888834
C         -13.39414095620326    9.30935469569126    5.06886245877996
C         -14.67569956594298    8.86103572726787    4.68583803626804
C         -15.50345585668673    8.55615756987277    5.72854594821864
S         -14.69228372684102    8.83844126552310    7.22901456689232
C         -16.89996415878438    8.05575727213358    5.69474568484355
Cl        -15.14102896289445    8.71471638691986    3.03530982009793
C         -13.22675233634034   10.99738498091317    9.02252979007457
C         -12.94667033559525   11.64668987735280   10.21049385411136
S         -11.23814510820756   11.60945129302936   10.58308556985880
C         -13.97267381616089   12.24678085316839   10.97296150400366
C         -13.91918033229275   12.93050973002113   12.15283344059047
C         -15.05768548633590   13.51408976249257   12.84478329519718
C         -16.37796507021059   13.43317715910781   12.48491784829356
C         -17.43208041466272   14.02913696876985   13.20988399935434
N         -18.33760214364620   14.48687134425507   13.74692504443898
C         -16.89458549714206   12.74951375755706   11.36430837000284
N         -17.40434070027123   12.21623514299504   10.48322429555496
C         -14.54878339344783   14.20325645545164   14.02566982722009
C         -13.13657267728169   14.02712233966368   14.08293945923022
C         -12.69981983441275   13.22540868190017   12.93046762579217
O         -11.56090438684786   12.88145122846015   12.67894663307894
C         -12.38023606633147   14.55778952936477   15.08769975918033
C         -13.01386457678896   15.30873332715823   16.10264040655302
C         -14.42560688215850   15.49444447310468   16.05182161422570
C         -15.18221462575572   14.92997883921958   14.99925942655789
C         -15.04797623798838   16.24802258473863   17.06774111520386
C         -14.31312087608604   16.79177030239612   18.08602261372533
C         -12.92335666778690   16.60713782384228   18.13564204267297
C         -12.28750312880742   15.88142991260537   17.16499155866946
H           3.78811138834407    0.17357677754722   -4.47201564222466
H           3.94214100186020   -0.63824223674237    0.44957048466622
H           6.02254805969526   -1.85769008884781    0.17602498606118
H           7.81747476709575   -2.73639373981843   -1.26546919250178
H           7.75279521949563   -2.35936352069851   -3.69841556802916
H           5.89680687591048   -1.09596284910506   -4.71058118094382
H          -0.13377317186068    3.06705496295937   -2.51297747495284
H          -4.28676966045307    4.80987731588299    0.06567554695301
H          -9.07542349877519    7.30889600655362    3.08429886908854
H          -7.44642378058707    9.25652371960103    7.17652244987106
H          -7.43014230638409    8.63545377669255    9.42395405398544
H          -6.40784719549183   12.82782086172831   12.57785605318854
H          -5.46291372117885   13.25939727555507   11.15488979284205
H          -4.97948053282186   11.87126051136397   12.14217239027316
H         -12.64812430816052    9.61293852945375    4.35848074266006
H         -17.26198370117134    8.05045516474919    4.66976143699885
H         -17.54823752451295    8.68768287219813    6.30011682358921
H         -16.95441118914793    7.04225611185229    6.09239743182587
H         -14.22672270040785   10.94148579714646    8.63240118689199
H         -14.94896657011792   12.12895699485423   10.51823797390602
H         -11.31110411419306   14.40674545255651   15.10662363263856
H         -16.24837342593399   15.09050011076194   14.99162118437881
H         -16.11829069017661   16.38701910483788   17.02556175037558
H         -14.79913467632372   17.36742217959820   18.85937698842704
H         -12.35918209499579   17.04279083511339   18.94665332284152
H         -11.21763050398924   15.73587610149998   17.19770773378065
