144
 SCF done       -249.219241226644          0.000619746759
C          -2.15609647422989    1.17790661996277    0.67511601636476
C          -3.22723570663804    1.10618214103784   -0.18082522330500
C          -4.18488156163512    0.07196873651409   -0.15873589681364
N          -5.00359658946269   -0.73309935084593   -0.19168522756053
C          -3.51820993802860    2.01360034354983   -1.22016536048779
N          -3.81965893405191    2.68794743665826   -2.10051658449746
C          -1.81805005452665    0.17185063520769    1.67618620385081
C          -0.57195862244391    0.52737878028722    2.26222995397528
C           0.01031971166285   -0.22741421052298    3.23827705117514
C          -0.64306462471880   -1.39817532285167    3.68476292056903
C          -1.89286338009532   -1.76020149094493    3.10594721353590
C          -2.46988518510881   -0.95727193020424    2.09445468097467
C          -2.53826075315094   -2.92774486358073    3.56087418849862
C          -1.97793844657260   -3.70172661972053    4.54044874099344
C          -0.74734174454885   -3.34372799847207    5.11023002734007
C          -0.09387633377326   -2.21676556277920    4.69074900324346
C          -0.08107069309931    1.77970850212554    1.65809081936642
O           0.96163537515346    2.33695109230661    1.94358830562118
C          -1.13137731257088    2.20421720324038    0.70721391022319
C          -1.25450348428641    3.41680703295270    0.07325741830579
C          -0.35145678312185    4.48461093665700   -0.03980151772429
C           1.01276495841550    4.59566555397170    0.21451714593382
C           1.52833002294628    5.85966932549414   -0.01578585939004
C           0.53632328760590    6.75007871679901   -0.47187282461226
S          -0.99781853341019    6.01292117347495   -0.63777540027049
C           0.95989894384168    8.08318951928949   -0.65903072476213
C           2.30016876008660    8.35041810307294   -0.35193334958420
Si          3.16111732030822    6.75781228617682    0.14447099149798
C           3.86015466630417    6.75247089333646    1.86905181659552
C           3.44975893865835    5.82282927483486    2.82850346752678
C           4.01617361790129    5.80102717402602    4.08975629142538
C           5.00657985464233    6.70888429165465    4.42411184847034
C           5.42828620887025    7.64029340645738    3.48917836439132
C           4.86197727821992    7.65917721435808    2.22928554471774
C           4.40858720850170    6.25146373373098   -1.14799959863721
C           4.10496026182736    6.33397746964002   -2.51109250891378
C           5.02128930444043    5.95771441103037   -3.47391581301448
C           6.26907002149492    5.48789283722035   -3.09759736879395
C           6.59207925910158    5.39717392666889   -1.75420692608331
C           5.67234138629797    5.77396819624135   -0.79334104713944
C           2.59682533333031    9.70139843945018   -0.51289960560802
C           1.52394901667292   10.46641091456895   -0.93777877564421
S           0.09332636723464    9.48375247885500   -1.16086022240550
C           1.48185139920466   11.87323719982579   -1.15654769129419
C           0.38971802384561   12.51376401598434   -1.68785286901780
C           0.27562534932725   13.89229144325832   -1.86643695011770
C           1.31452840723991   14.79912525023128   -1.35286917719546
C           2.49210406720108   14.38794659033196   -0.83803894908477
S           2.93877351154475   12.73902369726931   -0.66943067932615
C           0.79704946193588   16.11040880026244   -1.53707763383884
C          -0.46018072800415   16.03664142240966   -2.13543350081880
C          -1.02273946342238   17.31394724555323   -2.35129659854321
C          -0.19791832153579   18.30201375719910   -1.91623021777333
S           1.28940583503794   17.72996490356700   -1.23747978073302
C          -0.78569842708370   14.65546770711824   -2.38411515477764
C          -1.94989773397606   14.24990366048690   -3.08374068950063
C          -2.11120502139473   13.08114785113488   -3.75717718287222
C          -3.26759316427034   12.73173708114616   -4.49828965417535
C          -4.50636806581884   13.35389244049546   -4.56902825464852
C          -5.39259886676083   12.75154604044885   -5.45563521359863
C          -4.81154091445587   11.63881508236095   -6.08443373748352
S          -3.20349480672243   11.33858236244578   -5.55375494968600
C          -5.60696562272675   10.99086436974942   -7.05150392774934
C          -6.88709556274382   11.54744895120355   -7.25632116066014
Si         -7.13352489335035   13.00265451549662   -6.10791436026087
C          -8.47141510566868   12.70535787532226   -4.84587495043591
C          -8.51801216559825   13.45045767569500   -3.66396047288648
C          -9.52705268687833   13.26675582979513   -2.73828415921842
C         -10.52075704402297   12.33055275611171   -2.97329824985310
C         -10.49644061279577   11.58190923809963   -4.13772748965364
C          -9.48425919821738   11.76694858665601   -5.06124507065024
C          -7.31839263126196   14.64990321893898   -6.96414980035228
C          -8.48718516740569   15.40402086867659   -6.83509204813451
C          -8.62763433424406   16.62411488997436   -7.46937781853914
C          -7.59899486963199   17.12190722158423   -8.25143752957457
C          -6.43021595529003   16.39212687357452   -8.39468578440800
C          -6.29356422599638   15.17295760099579   -7.75918158794404
C          -7.58919143335993   10.86769398698979   -8.23539043560185
C          -6.89167902302024    9.79966336598000   -8.79663827102961
S          -5.29218479599911    9.65126682843189   -8.06508851339882
C          -7.19318710814248    8.89953229881230   -9.82736476106761
C          -8.34874667745403    8.68649506078037  -10.54194669120350
C          -8.43179647673532    7.76283825652250  -11.65727172191583
C          -7.38858176228616    7.16017030203159  -12.31720823880823
C          -7.54839878588466    6.28158379941181  -13.40797674795872
N          -7.60018441790973    5.55457835014129  -14.29598076631282
C          -6.01555963113125    7.34549960724490  -12.05583674484201
N          -4.87703458514647    7.45353741358152  -11.94024707251926
C          -9.83603344181649    7.63404978613097  -12.03317160649172
C         -10.59842224660951    8.51283858666988  -11.21570152833934
C          -9.70276417993757    9.21583284563217  -10.27823778901908
O         -10.05684891171738   10.03678261774301   -9.45274954008674
C         -11.95206978658608    8.62686647859615  -11.34153172601075
C         -12.62108748870967    7.84810801025550  -12.31269541623525
C         -11.86648033963168    6.96067624838191  -13.13165051600034
C         -10.46380766423465    6.86522581731316  -12.97622609436255
C         -12.54282700184188    6.18705829587466  -14.09636169374550
C         -13.89927658750967    6.28507434587947  -14.24776978672074
C         -14.64150514386278    7.15952186210424  -13.44058250328104
C         -14.01577938709308    7.92422526757569  -12.49362415241467
H           0.95841197380129    0.06482639486705    3.66521285259417
H          -3.41999277186156   -1.25639222599451    1.68165243418562
H          -3.48538987894541   -3.19971092187787    3.11831765600766
H          -2.48032925495003   -4.59456296294769    4.88168940952980
H          -0.31974094706455   -3.96500679058656    5.88313097275976
H           0.85438539164597   -1.93592188385491    5.12575236106481
H          -2.21466498599290    3.61458546184484   -0.38944432345439
H           1.59494800764036    3.76407887116262    0.56411420813990
H           2.68052091997261    5.10720961416870    2.57867768483869
H           3.68454527534148    5.07102952824951    4.81356304928100
H           5.44997508426545    6.69137881218834    5.40902819161197
H           6.20174605840309    8.35056529508186    3.74401317983285
H           5.19942856103113    8.38501914703635    1.50276899674551
H           3.13335128089975    6.70025265848377   -2.81238626034247
H           4.76397673983094    6.02985443434650   -4.52065116753514
H           6.98653609265963    5.19327740743556   -3.84930059130664
H           7.56349744789471    5.03082150405306   -1.45522770818701
H           5.93072134806207    5.70045508263182    0.25356765866701
H           3.56689505780058   10.12764608731234   -0.32684466481455
H          -0.45467336295573   11.88891496557435   -1.94526802867942
H           3.25081387654872   15.07561529171276   -0.49940647354930
H          -1.98198789931912   17.49849356492505   -2.80007398472682
H          -0.36581303463118   19.36080175503558   -1.94996010338012
H          -2.73691457454329   14.99051449315407   -3.13915191034040
H          -1.29190536451040   12.37928607713562   -3.81403434023674
H          -4.75172372209903   14.22322429219072   -3.98599515697922
H          -7.74783455963756   14.18522168402121   -3.47590544156760
H          -9.54126880702362   13.85426534690535   -1.83142343007949
H         -11.31076662275118   12.18594099090748   -2.25086950250908
H         -11.26936159805894   10.85150386376419   -4.32742483550365
H          -9.47593644303386   11.17921563261411   -5.96733046692448
H          -9.29300441074871   15.02161751001498   -6.22469902571627
H          -9.54146871070991   17.18896986369427   -7.35445335518154
H          -7.70722421448068   18.07525682939379   -8.74771702692582
H          -5.62465806634781   16.77630051399643   -9.00374307079466
H          -5.37789608515942   14.60959333539350   -7.87399735433622
H          -8.58270181312343   11.12297664709094   -8.55454293616813
H          -6.35695457832114    8.26219738497543  -10.09113088053725
H         -12.50638196513324    9.30412850180330  -10.70859487878151
H          -9.92363906986079    6.17961631447711  -13.60914836171087
H         -11.96643015875335    5.51575981748768  -14.71610261001958
H         -14.40780781780227    5.68901550963236  -14.99088827560706
H         -15.71140600760937    7.22424991941407  -13.57268059465911
H         -14.58226192754978    8.59953647682803  -11.86878836426690
