102
 SCF done       -215.892043710305          0.000242895964
C          -0.91158704912566   13.80671675108862    2.26718869011345
C           0.00530894259059   14.48309219638764    1.50633864256735
C           0.15519976349643   15.88722971661985    1.51276054059780
N           0.33146735085073   17.02041312648076    1.46701036896145
C           0.93050572242236   13.90664054792457    0.61051022302573
N           1.71222206685153   13.52345528651533   -0.13915307874299
C          -1.86330118753007   14.42224173053713    3.18450370592693
C          -2.63716751611071   13.39523284680119    3.79772219231341
C          -3.61896379055010   13.67062846392936    4.70581259185452
C          -3.88042718669686   15.01542524966979    5.04900770300497
C          -3.11199705851087   16.05055909217651    4.44113055129900
C          -2.10049235745472   15.73344865439608    3.50594600302049
C          -3.38241713044537   17.38981506657104    4.78904576939543
C          -4.36428705358601   17.69357206692892    5.69255072379036
C          -5.11993951214942   16.67362177363683    6.29012143892328
C          -4.88298658338935   15.36278657615731    5.97558634862219
C          -2.20125220742764   12.08766486864359    3.29054389218968
O          -2.63918943427012   11.00187933062255    3.61349318962839
C          -1.12443365451305   12.36567425760901    2.31438301101838
C          -0.45770859153585   11.44125535682019    1.56943245024776
C          -0.59697409102112   10.03263570321215    1.50068144899551
C           0.16629682769646    9.28884604303111    0.62162187973696
C          -0.11144595346272    7.91242467486249    0.65505064860225
C           0.41097951801593    6.85678647368882   -0.11994923582903
C          -0.10280106782401    5.57965685748132    0.14444979633960
C          -1.12209101900358    5.44575231377169    1.12719799506217
N          -1.63520763452405    6.42575289108000    1.83174103718577
C          -1.13625082706274    7.62656315569884    1.60387598625107
S          -1.70576640645731    9.03615747293714    2.42737821855524
S          -1.64360917173336    3.79693922923831    1.33747632937960
C          -0.47051978043282    3.28646471292992    0.15336489505221
C           0.25442911238314    4.29951091781176   -0.38017962860603
F           1.23805477147344    4.10124072723483   -1.27014246359585
F          -0.34903877576278    1.99747059316021   -0.13537742778974
C           1.39395408741767    7.07193954119640   -1.16005332399704
C           1.33393739244116    6.60367314061256   -2.45080420770886
C           2.45816937677792    6.97625879878245   -3.19440966136855
C           3.38405017702622    7.71687601566848   -2.44621236633870
S           2.85460805530462    7.99461874407306   -0.84966602886495
C           4.51049465458849    7.99737230093866   -3.26967405280900
C           4.27936037522062    7.44592660388663   -4.54001489941488
C           2.97891851058053    6.79266614104852   -4.53844602584896
C           2.37564535536060    6.14370693115328   -5.57434054613569
C           1.09726905357844    5.55869333449747   -5.44882165201442
N           0.05379298817502    5.09336609958678   -5.35456094421571
C           2.98162800362114    6.02392704728523   -6.84326230520425
N           3.46906578273861    5.92361504322174   -7.87596975501469
C           5.34337985159189    7.64864894420308   -5.41977790736865
C           6.38237406519485    8.33328992733459   -4.82104304664487
S           6.03577010908576    8.75095953109929   -3.15138478467370
C           7.63889840331122    8.66716235726737   -5.39969347837195
C           8.73503175746323    9.18430296024211   -4.76509180171906
C           9.85036278221872    9.33241886713443   -5.62010265423609
C          11.14351698265832    9.81097891084612   -5.33971859758053
C          12.06172151337809    9.78541886863557   -6.39930850049446
C          11.60416938856002    9.39694117005425   -7.68396682825778
N          10.38544508292054    8.99315333928033   -7.96721183595089
C           9.54885070289300    8.94220576931910   -6.95403131820721
S           7.91884385083717    8.37705825829049   -7.11118658007166
S          12.85172586660804    9.48152572936278   -8.89688511499554
C          13.99236610029335    9.95798824969712   -7.67362464545186
C          13.45813952654399   10.06865155355984   -6.43195945681131
F          14.19210700489613   10.34703997725130   -5.34256732487869
F          15.26234421198176   10.16143768411969   -8.00112665599781
C          11.44203489323864   10.27390776352153   -4.00142588960379
C          12.10193557585090   11.40274857991985   -3.67586685310380
C          12.45235064580291   11.83356943944208   -2.32568739954082
C          11.85298385245386   11.42093141919066   -1.16807765557628
C          12.22457274326799   11.87698135814951    0.11517829163559
N          12.49143982269264   12.20903754300552    1.18041252275869
C          10.74377732876003   10.54962167700862   -1.11890877565316
N           9.81726986230894    9.87638768043241   -1.03344293611128
C          13.48392943509607   12.85017412910437   -2.45342272932377
C          13.61003508818012   13.20434468001098   -3.82926961296121
C          12.68260999985329   12.39481087745640   -4.63377874402892
O          12.41723445415766   12.51725461737137   -5.80817561791430
C          14.49869928003175   14.15218141233332   -4.24848282455587
C          15.32507059835393   14.79029698100553   -3.29695546670852
C          15.21095039085961   14.43476738885545   -1.92083606066415
C          14.27606552982523   13.45698560339314   -1.51372800861104
C          16.04582426541257   15.07561779983509   -0.98233526363600
C          16.94959855912503   16.02215743932897   -1.38125129693132
C          17.06083892730473   16.37150850148312   -2.73569589104521
C          16.26596095449630   15.76908255909479   -3.67285862091003
H          -4.18963284626127   12.87097447480981    5.15409980930210
H          -1.53908690367958   16.54157436676499    3.06521847982416
H          -2.79825385442089   18.17175513612840    4.32660816939560
H          -4.56437714118295   18.72232897346749    5.95172186588979
H          -5.89077783912760   16.93172372018154    7.00061488110540
H          -5.46137900104869   14.57311194311236    6.43216439641943
H           0.30336707857330   11.81285030321623    0.89369287538105
H           0.89229210533531    9.74291305053022   -0.02957820523776
H           0.50448816959185    6.03816796915188   -2.83421226074581
H           5.38247459250773    7.31158431140581   -6.43989858570130
H           8.74045458196412    9.42473638106133   -3.71605306825403
H          11.05392658180243    9.64441955034313   -3.21108902199912
H          14.57634372298295   14.40627711872530   -5.29511342723459
H          14.21592384211183   13.20114621374888   -0.46731559205084
H          15.95569247852303   14.80406258131722    0.05916575294396
H          17.58466293244208   16.50704690179381   -0.65520821127251
H          17.78006629056453   17.11993342885524   -3.03270051381210
H          16.34792295794961   16.03364956232438   -4.71681663495547
