102
 SCF done       -187.939276338611          0.000994537661
C           3.10379022861214    4.51829164368995   -2.29354414150542
C           2.79363645098598    5.76714669814801   -2.77528586446725
C           3.04896303976850    6.19433024443359   -4.09112810104770
N           3.19284538231254    6.58560938057762   -5.16179793803420
C           2.22997450788109    6.78283820413873   -1.98393651628772
N           1.76444142379342    7.64008483934674   -1.37673633713439
C           3.94817744646457    3.53932630128964   -2.97383331548931
C           4.39942536361128    2.58961744194095   -2.01198601682766
C           5.23776294065676    1.56820639228809   -2.35064304972531
C           5.65831134982216    1.43827943937226   -3.69450136598493
C           5.19931184045176    2.37579520774814   -4.66329607550446
C           4.34062454323072    3.43314561882131   -4.27945441189101
C           5.61805410627769    2.22921933255573   -6.00077151107397
C           6.45147206347886    1.20711294287574   -6.36642983648415
C           6.90452764148219    0.28554206260037   -5.41146382625961
C           6.51703628057527    0.39961640758919   -4.10370904729957
C           3.80281658011822    2.90932749336280   -0.70103266050909
O           3.99028997215629    2.35185275143659    0.35785156341119
C           2.86693725436706    4.03751864292038   -0.96049003535746
C           1.94529349176661    4.34903365498407    0.00272950211298
C           0.72314743812946    5.03485693909262   -0.07007112354925
C          -0.08392227937684    5.38653778496523   -1.15485214052146
O           0.20218634474326    5.11815327855046   -2.45162917619381
C          -0.61214508262924    5.86141758634913   -3.34565805231795
C          -2.09099390153188    5.81673483113158   -2.93977031448010
C          -2.64096217623934    4.39287356152914   -2.96514124359736
O          -2.24628306596882    6.39885890978988   -1.64936883524579
C          -1.28781604426317    5.99903674299298   -0.77685031533764
C          -1.43177600919714    6.13881725493989    0.59412657170609
S          -0.06922201727709    5.48225427998051    1.43078734970846
C          -2.54994280987029    6.68841475470667    1.25358005234305
C          -2.73686190193439    6.78786396522460    2.62054845574305
O          -1.81103790607746    6.37214047142049    3.52265045245011
C          -2.35467519459102    6.22983879455147    4.82242408556682
C          -3.27269684162081    7.40795550106081    5.18236024723076
C          -2.51101911145593    8.73067926863211    5.19717377335612
O          -4.36797126717185    7.46158160796669    4.27361585988113
C          -3.97917485435711    7.34496101595494    2.98082274849027
C          -4.75607522097962    7.68162331172185    1.88315725867819
S          -3.93627851052966    7.28244450300675    0.39399716255933
C          -6.05962536610511    8.24627945556231    1.85742422185475
C          -6.69619835574502    9.01117137597167    2.82180401671173
O          -6.12580085795040    9.38109760810068    3.99998110971952
C          -7.09566340516370    9.71546577602947    4.97373981045414
C          -8.13741525138751   10.68350352511437    4.39844887568250
C          -7.48780515966792   11.99544395902038    3.96556382648854
O          -8.81548371988382   10.06421743169733    3.30810069574155
C          -8.00663505218295    9.39812442791459    2.46731594318307
C          -8.40167142248408    8.92821321123085    1.21321836588741
S          -7.10234832385280    7.99912286820033    0.49395482097579
C          -9.64167894894322    8.97196784570822    0.55403830477318
C         -10.65491602145992    9.87941487146167    0.72888711257185
C         -12.02003573421632    9.71790867270879    0.28012863451891
C         -12.58192984542857    8.58161930810875   -0.24800529204115
C         -13.93052759097353    8.47701746204942   -0.64348352468539
N         -15.01518716369974    8.32532024447911   -0.99000987941538
C         -11.91315004856725    7.35717351264192   -0.44953288725524
N         -11.45399248135958    6.31990669432219   -0.63310989798311
C         -12.73581940226791   10.95566196929324    0.57436179470275
C         -11.82631715577500   11.87184489383919    1.17419807789766
C         -10.49024973025222   11.25015059640770    1.25436665944592
O          -9.45569189362387   11.80556301048966    1.56371874226208
C         -12.21425270137271   13.11885575175344    1.56734296601764
C         -13.56120863304694   13.51066002310732    1.39061707527728
C         -14.47734856093584   12.59973462555970    0.79202644586270
C         -14.04209697407195   11.31799977675185    0.38207482122475
C         -15.81811613082501   12.99930771991603    0.62058650721832
C         -16.23663998591436   14.23869438405265    1.02216250514213
C         -15.33320875114044   15.13562745867565    1.61061637418137
C         -14.02409032507098   14.77908163129051    1.79089300343725
H           5.57584989407246    0.86438348030604   -1.60453202844701
H           4.00537501973471    4.12782936678119   -5.03395952894182
H           5.26895854140057    2.94342187716271   -6.73227187662219
H           6.76630250291696    1.10381714172772   -7.39417916097332
H           7.56164723978471   -0.51520033451142   -5.71655621742211
H           6.86285012113726   -0.30723951071709   -3.36349121721447
H           2.16738425580671    3.92514925659085    0.97840949854684
H          -0.46054501854723    5.41768894954973   -4.32997920856240
H          -0.27339578513607    6.90603733095460   -3.35520319109198
H          -2.67089097979671    6.46059317883427   -3.60779384922207
H          -2.02544051499467    3.73306502199981   -2.35664382743544
H          -2.65301081193210    4.01973379591788   -3.98514417204168
H          -3.65432559702688    4.38821952990578   -2.57206529493012
H          -1.50339170312248    6.17655553943903    5.50151155083845
H          -2.92791766239558    5.29458965803132    4.87846755394855
H          -3.73473249604631    7.22335714782373    6.15731064842231
H          -1.94940390412570    8.85892655582099    4.27436697160914
H          -1.81994333664810    8.75222891253642    6.03488921085218
H          -3.21820532957387    9.55072906766147    5.29151381887456
H          -6.55143667613405   10.17796702868774    5.79766905853986
H          -7.59266476268013    8.80251922674461    5.32900768013164
H          -8.92429362849883   10.86895643911542    5.13638573339413
H          -6.57119923154439   11.80000710101480    3.41309739468576
H          -7.25562924004199   12.60052747543842    4.83739031318605
H          -8.17192049199935   12.53321389936080    3.31550219990379
H          -9.78614142341923    8.18226902510196   -0.17360796368543
H         -11.50543354921572   13.79962689272551    2.01551069909220
H         -14.75833839139433   10.65487313562522   -0.07629518709992
H         -16.50973570106642   12.30443286568716    0.16700448706711
H         -17.26649133231483   14.53457586676419    0.88841727423740
H         -15.67935884950644   16.11055027777601    1.92040810469009
H         -13.32391765952839   15.46649564555903    2.24326746431384
