78
 SCF done       -145.854772534883          0.000476057357
C           1.24010822351014    1.85796132355977    1.62685050955367
C           0.40987656041205    2.48843890896000    2.51259562956275
C           0.72337892296518    2.68574555624639    3.87415265344285
N           0.94110568489334    2.87782827586174    4.98416843835899
C          -0.88805523960896    2.93714822032989    2.19159181434198
N          -1.96665360856064    3.27554719345225    1.99395864697262
C           2.48072708863287    1.17066352388928    1.96372070650427
C           2.80400321650270    0.26569194750666    0.90916658204573
C           3.90403010964161   -0.54151178293693    0.96853067931783
C           4.74930829509552   -0.47266043965041    2.09822892099586
C           4.44014770058496    0.44047090354859    3.14845756024064
C           3.29212758080026    1.26046397571829    3.06349673209670
C           5.29608061422729    0.50397615624484    4.26698172161423
C           6.40286439395553   -0.29647254567801    4.34737097345907
C           6.70598509195274   -1.19544185887535    3.31355760804516
C           5.89677877976417   -1.28216009827912    2.21337830798296
C           1.80656410965148    0.38964060270195   -0.16537358263882
O           1.71426995348750   -0.24887857082423   -1.18656709902194
C           0.94263507217752    1.54381693971453    0.23848610929284
C           0.17890133977306    2.15679034313623   -0.69058155822912
C          -0.44573624106544    3.44998821632322   -0.60894882606647
C          -1.68243071622252    3.72743845240838   -1.21147808410585
N          -2.24238047242107    4.91122779616031   -1.16446139394559
C          -1.61162485949390    5.87397412228258   -0.49278855461050
N          -0.41545201351101    5.73055234694294    0.07793760392483
C           0.16071529499707    4.55612489856012    0.00536834682809
C          -2.25481452641189    7.17525186371750   -0.40842896147527
C          -3.52731250507192    7.41136264327991   -0.94086591783900
N          -4.09892609074228    8.59381968662351   -0.88975553366238
C          -3.42523453710340    9.57981694167650   -0.29556586284475
N          -2.21847872606408    9.45578380868100    0.25887543554587
C          -1.64289080534935    8.27514423174227    0.20262525295021
C          -4.05192138446485   10.89507688076430   -0.26095103512667
C          -5.28821550754453   11.14380159483036   -0.86342107283316
N          -5.85196807661609   12.33379272109120   -0.84244889026955
C          -5.20262323987573   13.30217682918264   -0.20264856332471
N          -4.00880786744642   13.18497267663374    0.37424745660229
C          -3.44418666704537   11.99722123879428    0.34949845511157
C          -5.82808702693306   14.62764164448098   -0.18951544448352
C          -6.12815530565707   15.28220023692750    0.94329725906842
C          -6.65051577113271   16.63869814248850    1.10019434202336
C          -6.94755912413856   17.51496728186987    0.09508699690945
C          -7.44520687838897   18.82087610367237    0.30130215814063
N          -7.85130797699496   19.88955266368184    0.40135175492173
C          -6.80534725177435   17.25129337645598   -1.28525751950586
N          -6.71685818327836   17.12161219780114   -2.42206536432744
C          -6.77422417482418   16.89736519900762    2.52748375543702
C          -6.38450429614331   15.73143010120353    3.24924411489378
C          -6.01254774182095   14.66553937954665    2.30518534608669
O          -5.74480149161675   13.51623366272894    2.56066716964435
C          -6.40130388836466   15.69004706698922    4.61435562896072
C          -6.80929850186623   16.83383749967305    5.33535415565454
C          -7.20112254725281   18.00390285137466    4.62157595089641
C          -7.17816772057613   18.01722982874690    3.20952031582125
C          -7.60997781498132   19.13977341798392    5.35103752100517
C          -7.63047908554692   19.12266752069593    6.71873288229076
C          -7.24371539873083   17.97046377754208    7.42040330561182
C          -6.84192144902276   16.85086624260503    6.74384278842555
H           4.12701751250725   -1.22424809147332    0.16216106392053
H           3.08692533690770    1.95033209640151    3.86723575173238
H           5.05691678603838    1.19526185274968    5.06159807819782
H           7.05129956998412   -0.24168363798420    5.20878861801885
H           7.58403689334897   -1.81856998231560    3.39324758920149
H           6.12504652142955   -1.97230068444638    1.41447802108452
H           0.07995508436539    1.63422425228552   -1.63730035236829
H          -2.23705513722351    2.95513191310782   -1.72845931549394
H           1.16033165841463    4.48784350277671    0.41926079386008
H          -4.08434336289994    6.61667431644353   -1.41829598641404
H          -0.66141794575351    8.18662581123554    0.64875774743242
H          -5.82430916908420   10.35757514761890   -1.37722494032432
H          -2.47575935830637   11.90594500411086    0.82188504102432
H          -6.03679442217687   15.04665954543817   -1.16436683577447
H          -6.10327213213618   14.79330379925026    5.13696326092303
H          -7.48208048411268   18.91743756330807    2.69940491796721
H          -7.90673134814712   20.02392458077257    4.80623236472870
H          -7.94497808102962   19.99702314808345    7.26850664729611
H          -7.26615271237191   17.97506608331085    8.49986872591187
H          -6.54352852914674   15.96119005945431    7.27867048285066
