130
 SCF done       -247.887832102886          0.000565179169
C          -0.54859406779861    5.05005519387276   -3.91222831794315
C          -1.73657989135505    4.40321286183223   -3.67983918861772
C          -2.84543135392896    4.46655707207752   -4.54530796097226
N          -3.77979979956522    4.50002959657930   -5.21174815215526
C          -1.92530535097282    3.51422550997314   -2.60338674541327
N          -2.08131812458006    2.74290426055262   -1.76697817865857
C          -0.17559140985333    5.70368962625317   -5.16273406940578
C           1.24765839251586    5.75857509630092   -5.23299655522495
C           1.89122263653160    6.27481831458575   -6.31993264749164
C           1.12795499474785    6.77888552961339   -7.39781064538576
C          -0.29449254371790    6.74389464833398   -7.32437509389841
C          -0.93489602862023    6.19521343603458   -6.18873257778627
C          -1.04258834165664    7.25643649827733   -8.40326973201076
C          -0.41822873167548    7.77497010667694   -9.50504489490050
C           0.98217728871182    7.80716630357766   -9.57747915078288
C           1.73855415602243    7.31975797510380   -8.54626528454180
C           1.81778994975345    5.20463530652919   -3.99081928669149
O           2.98440040061994    5.04169629162550   -3.70971973445079
C           0.64708806165865    4.94286290148278   -3.11052586668380
C           0.84964443343318    4.76485610312394   -1.77165812262147
C          -0.03237193028319    4.93810737060354   -0.69327487373282
S          -1.54487669303845    5.80875436783755   -0.78296383726329
C          -1.86264993983995    5.64511420182435    0.91667966069189
C          -0.82895673497854    4.94791494781844    1.51960871619962
C           0.20925614665875    4.56044712771825    0.63334765792253
C           1.23838514545809    3.85602016628151    1.29657074156675
C           0.98808371501779    3.72694839491631    2.63169498577665
C           1.80285179616953    3.07825245403915    3.66262605949593
O           1.50450228945151    3.04022999411958    4.83125131804864
O           2.91490798253420    2.53516879459463    3.15080868718506
C           3.76340675719882    1.87802742384884    4.08193090368967
S          -0.51606662744048    4.44799442748623    3.14830613739207
C          -3.03266464082736    6.17559215427547    1.51315974718956
C          -3.39044157059180    6.08520590276829    2.83180981219443
C          -4.62277003885654    6.70610580787247    3.12804212958820
C          -5.25646507555145    6.81183670973525    4.38517745432288
C          -4.64603967508046    6.31787688945865    5.60143064793871
C          -5.25681514563590    5.71377770318067    6.66419899005837
C          -4.35479412602012    5.38428563758993    7.69802533114601
C          -3.05900159394176    5.73861022704407    7.45469710817969
S          -2.93711360859403    6.49871082063785    5.90658271406174
C          -1.85799278218302    5.53512478958319    8.30188240030446
Cl         -4.86422058359828    4.59734165669201    9.14174397165364
C          -6.50184577507392    7.43098219821638    4.39506160080607
C          -7.11496026690453    7.97152313604767    3.23617666609708
C          -6.46047574267199    7.90586671037812    1.98869972821954
C          -5.23280517125353    7.25261069104414    1.97006802921640
S          -4.22916258249664    7.02826748705992    0.56310553487596
C          -7.00558990264396    8.50411589452106    0.78730543395582
C          -6.93613976508753    8.03204962124650   -0.49239532196525
C          -7.51482501976905    8.91157160255619   -1.43292671735433
C          -8.01869432007367   10.06085566272851   -0.89725702028216
S          -7.78747759166538   10.06348041517979    0.81793892573974
C          -8.68378434916493   11.19636857356944   -1.58414616976723
Cl         -7.56711541239615    8.54807810887220   -3.11491724060830
C          -8.38543534198277    8.52327949298112    3.52398591320571
C          -8.72972004976276    8.45358639222478    4.84261007727372
S          -7.49051214593727    7.68304122803804    5.80803309656439
C          -9.94141549212167    8.89675819399758    5.44507561352337
C         -10.28251812230443    8.88680035805673    6.76499474675323
C         -11.58278787248967    9.37825690557610    7.02357630885112
C         -12.26302533630816    9.77594412399636    5.84289937959808
S         -11.22784348740430    9.53284633921573    4.44516323709888
C         -13.55858624315953   10.26447789924732    5.88690453860915
O         -14.34259124765340   10.68712253259303    4.87310030177296
C         -13.88085644067983   10.64994635620385    3.54399902163327
C         -14.16131753611301   10.33304805470159    7.16689347764020
C         -13.47005221872672    9.95172072262046    8.35157305398195
C         -12.17119785294738    9.47194307508194    8.30301239330217
O         -11.37221722009088    9.06902919243647    9.32149329141897
C         -11.82478544532963    9.14206046889289   10.65371686738631
S         -14.50809209821896   10.17950819776783    9.73909011945873
C         -15.83961271927047   10.74269507065081    8.73076851826900
C         -15.47740271074761   10.76810203638097    7.40692653827411
C         -17.02218795285428   11.09666357891949    9.41699071147048
C         -18.27326705089465   11.40492846006619    8.96170723077282
C         -19.37907457316512   11.75074195093073    9.84255451190950
C         -19.29606565839000   12.14500321386796   11.15308126107818
C         -20.41344478030169   12.48430965991381   11.94464506434240
N         -21.27779939201305   12.76894818520855   12.64488205626168
C         -18.10681496057440   12.31984930430936   11.89207849237823
N         -17.19184827218482   12.50908079198096   12.56059985012967
C         -20.60941584595522   11.68544195691603    9.06381075750364
C         -20.26759359154287   11.42899941591181    7.70681831101142
C         -18.80433384374475   11.30153281747986    7.57973960377408
O         -18.19643885097635   11.13292388724966    6.54315992547988
C         -21.21566705171353   11.32195337444849    6.73072143323503
C         -22.57870257841372   11.45985914320237    7.07662074219526
C         -22.93030552966718   11.70592480961715    8.43505913157752
C         -21.92467722935041   11.81866279717994    9.42257053003864
C         -24.29345380958543   11.83350851331693    8.77111120215775
C         -25.26411464925138   11.72494059380417    7.81278335845116
C         -24.91669877489462   11.48419274312607    6.47515114924363
C         -23.60270821620436   11.35492879177840    6.11496960068736
H           2.97016745515301    6.29820790800986   -6.35981342430423
H          -2.01327938113433    6.18655875340049   -6.15314573829362
H          -2.12068798968112    7.22614713579002   -8.34423422694406
H          -1.00051440418213    8.16241077062531  -10.32766606938056
H           1.45881404614428    8.22000892149862  -10.45402993641146
H           2.81744511915177    7.34222144499715   -8.59636168039363
H           1.87650986754360    4.54433532787447   -1.49389270576463
H           2.11905647714435    3.46148410115952    0.82501708237337
H           4.60244553385854    1.49462759551360    3.50755748813858
H           3.22789119594148    1.06279166706634    4.57269771438079
H           4.10688180260529    2.58128849046674    4.84337146963987
H          -2.78929075328759    5.57011465149213    3.55601400942914
H          -6.30161293199396    5.46849292416559    6.70264668533935
H          -1.38352714791996    6.48836209997453    8.53275631165403
H          -1.12728145129645    4.91474585558985    7.78322234565318
H          -2.14228703941746    5.04651201071312    9.23039522330324
H          -6.52636704945433    7.07743632814076   -0.76482213317339
H          -8.11093243983459   12.11398570574307   -1.45220378119028
H          -9.68029851965061   11.36201012639492   -1.17635765057671
H          -8.76583772269502   10.98137444797499   -2.64649937053702
H          -9.03918418974494    8.94986259681119    2.78554093389403
H          -9.62954512617550    8.53584503291341    7.54302495318459
H         -13.64665136035796    9.63091251400811    3.22535262677722
H         -13.00357604854207   11.28685083243753    3.40244025765127
H         -14.70589634587064   11.03376090789151    2.94564072630484
H         -12.07210036298036   10.16679447314839   10.94176082563980
H         -10.98967162682681    8.79057083823624   11.25804267203518
H         -12.68952978864538    8.49572838648836   10.82358897531597
H         -16.13591413863555   11.08257644329259    6.61868916123826
H         -16.90012693269516   11.08044291309082   10.49447594266650
H         -20.92921366623112   11.13046201966228    5.70717432697397
H         -22.22426740214370   12.00010001403060   10.44239336709572
H         -24.55551721887102   12.02048464018238    9.80220841996392
H         -26.30549804109777   11.82406642807282    8.08033549452502
H         -25.69547718201029   11.40096304232919    5.73170562366772
H         -23.32940487980992   11.16903131729805    5.08644495412815
