153
 SCF done       -275.002072692760          0.000825906793
C           4.65163163043538    3.05065070350988   -1.76225965928376
C           4.56953840060151    2.43977094237114   -2.98535321312740
C           5.52088400336550    1.51480786318037   -3.46542506861362
N           6.26125371232795    0.76153206089898   -3.91534915475531
C           3.51425571823634    2.59141191821225   -3.91050092446943
N           2.68494367584708    2.63621492056781   -4.70335364864482
C           5.67432158832639    2.78819352738417   -0.75818447136205
C           5.28521147484081    3.42762770919720    0.45153357375268
C           6.04046597849373    3.34971183627138    1.58581321578965
C           7.25058803138366    2.62162807615615    1.55783051216981
C           7.65457275283945    1.98924142166908    0.34660107226655
C           6.84706722380689    2.08228102867667   -0.81031543736698
C           8.86803748263785    1.27188135017244    0.32807931883808
C           9.64452198855527    1.17991660485758    1.45098463824277
C           9.24451996517609    1.80111186842260    2.64351817873887
C           8.07309109847264    2.50657408815517    2.69567182263442
C           4.00966364571712    4.13692182519849    0.25144336137075
O           3.37965663735505    4.70953287257103    1.11627941274861
C           3.69787820328317    3.99521233716996   -1.19448891642934
C           2.81627301018592    4.70985313496387   -1.95371374078814
C           1.84918979001750    5.67579144976945   -1.58926585073051
C           1.33567397581378    6.04866681854121   -0.37264032273577
C           0.37555621323794    7.07653213230871   -0.44860766496830
C          -0.34996093135670    7.65648749163827    0.61718004238838
C          -0.11322076663845    7.30781407786101    2.00142467724994
C          -1.03539777242576    7.20126811193820    3.00645561769744
C          -0.44659492653654    6.90403000256130    4.25160967232661
C           0.91481847560870    6.79369790550024    4.22169839223036
S           1.49671469607660    7.05494156452589    2.61722143590779
C           1.84825711216195    6.49651397800164    5.33728460654805
Cl         -1.37900612561258    6.70212640301799    5.68530782000290
C          -1.29470355331979    8.61336366479778    0.26860120188502
C          -1.53297402464346    9.03063908793253   -1.06630387723094
C          -0.81571087763719    8.44835832704716   -2.13096204835506
C           0.12865186844716    7.48465241214273   -1.78716215253703
S           1.11225988994191    6.59033359204730   -2.90352020435676
C          -1.04780020618710    8.80886916242379   -3.51468303020670
C          -0.12942465523119    8.92308949380273   -4.51907140215337
C          -0.71611141831317    9.23782525192972   -5.76369608218067
C          -2.07532216223749    9.35423748692899   -5.73596967962039
S          -2.65759938310607    9.07949243151631   -4.13002973276374
C          -3.00893867969237    9.66510899510034   -6.84721891326853
Cl          0.22247324083639    9.45518272083576   -7.19075066698974
C          -2.47922619131060   10.08116239787001   -1.12474238028761
C          -2.96753019419068   10.44936089247544    0.09462631794685
S          -2.27744111196142    9.50784117975325    1.39681978391808
C          -3.91927175061771   11.46949688167348    0.37970423357578
C          -4.43582760491523   11.80482439614038    1.59560389141046
C          -5.35335479649272   12.88229789012466    1.54854960768082
C          -6.03727082699536   13.48857461695059    2.62057332434097
C          -5.85950229312140   13.07486166276687    3.99757247179130
C          -6.80980213799413   12.99960245491791    4.97577929558266
C          -6.28115402625977   12.60389606749854    6.22317761044526
C          -4.93445840139995   12.38542239825035    6.22412956774182
S          -4.29143766078675   12.66379325169441    4.64187948648868
C          -4.05731480194641   11.96142642531682    7.34408675721508
Cl         -7.27066624130976   12.41819546425676    7.62043968850422
C          -6.89241891639016   14.53645024480847    2.29255760460074
C          -7.07802561062912   15.01162466636741    0.97196320115475
C          -6.38854470516350   14.41034944027206   -0.09943506011493
C          -5.54970011728865   13.34785674620283    0.22461443284806
S          -4.56576013763372   12.46149242963958   -0.90900796657048
C          -6.50131678935310   14.87217566191017   -1.46856309385126
C          -6.50500580678608   14.11747370731630   -2.60650234877333
C          -6.55364183182014   14.89728921863481   -3.78229533050495
C          -6.57687577506747   16.24400006656299   -3.56905804693932
S          -6.55171792162068   16.56957191177072   -1.86873835958437
C          -6.62763237841154   17.34653747851791   -4.56218493462474
Cl         -6.57550739337922   14.18764783634301   -5.35119661460159
C          -7.99239514695219   16.09354449446550    0.92770436601189
C          -8.47019783613596   16.47423861512974    2.14590569170146
S          -7.81794753376829   15.47276626596769    3.42833562262823
C          -9.39779000593419   17.53881303946509    2.45621424605905
C          -9.92158149673601   18.34734373931077    1.43619074765528
C         -10.80661179180703   19.34914782431153    1.75319815280237
C         -11.14856059103148   19.59891724780415    3.09474311378365
C         -10.63562564670939   18.80589519079131    4.11100456519565
C          -9.77606013747302   17.77849028421779    3.78203025390566
C         -12.00583370500028   20.76168140080092    3.14489929470487
C         -12.19792020826525   21.23103540543070    1.83372507301823
C         -11.51030536310711   20.32316473377488    0.83556457412697
C         -10.53249158670870   21.08599572172316   -0.06954126803482
C          -9.49730575014154   21.87195780061204    0.72695656720122
C         -12.62470440562834   19.62893665091834    0.01591066048416
C         -12.16691838929006   18.51804656387597   -0.91983038031259
C         -12.95514351257106   22.35098667156759    1.60167601323205
C         -13.53585671930417   23.04124378423783    2.68145617066578
C         -13.33725922996708   22.55399238723692    3.98362757682446
C         -12.58210398307449   21.42559553087505    4.22045052052890
C         -14.30995947713408   24.21949746216067    2.40350022052383
C         -14.92667015981217   25.01756089877832    3.30888875007591
C         -15.66615795006965   26.15898270557269    2.91780197676327
C         -16.30699377207776   27.00239732176629    3.77115221272479
C         -16.36500110232737   26.91383260277933    5.22511389796091
O         -15.85116143843946   26.07567818964349    5.93430025216010
N         -17.12124399009731   27.96143182181928    5.74220197833944
C         -17.64424263081112   28.83447711825666    4.84195689498549
C         -18.42079270788873   29.93634460342461    5.09585505167651
C         -18.83659311963658   30.38273692201111    6.36219334371016
N         -19.20944316477041   30.79786737833967    7.36586819694975
C         -18.87346116884458   30.72963197996052    4.02089493416029
N         -19.24441558220999   31.37899655424701    3.15113782294191
S         -17.20996932329279   28.39920584732253    3.20598338652631
C         -17.30800202103010   28.06745628022705    7.16912203648778
H           5.71963964505691    3.84098946331263    2.49247051065710
H           7.18337782614374    1.59735491273493   -1.71287258681812
H           9.17106517628218    0.79370971542049   -0.59179029501504
H          10.57179933239761    0.62735648922223    1.42667599957011
H           9.86931667555508    1.71816609123371    3.52026432892227
H           7.76005963555071    2.98760353487102    3.61091829826357
H           2.88052481944756    4.56258784017522   -3.02624797866227
H           1.64149859563302    5.57758312326003    0.54145076295225
H          -2.09683246472964    7.28609456331694    2.86671304046072
H           2.38855312351093    7.39528974007179    5.63632461336895
H           2.57910574920260    5.75097126526603    5.02998383639413
H           1.29241978632576    6.12424910937230    6.19452499071540
H           0.93133874399529    8.82565721699257   -4.38280914580350
H          -2.44339866426871    9.88839354254281   -7.74836734436517
H          -3.63301578104711   10.52187603674918   -6.59617419104030
H          -3.66604391226922    8.81822300760989   -7.04480941563542
H          -2.78473370641057   10.56982108489691   -2.03142622710270
H          -4.16289327227993   11.28174777059803    2.49351158793181
H          -7.85655847659387   13.17956315111986    4.81690816524921
H          -3.26649546565491   12.69201623276519    7.51100174383128
H          -3.58687002909822   11.00405850825423    7.12113021450172
H          -4.64591058954528   11.86239383829782    8.25270529008688
H          -6.50910121163690   13.04375647401152   -2.61927765244822
H          -6.53349047248127   16.93875585938219   -5.56546103838777
H          -5.82040722890040   18.05694402325853   -4.38916590580509
H          -7.57152634653129   17.88705874693878   -4.49007260462130
H          -8.28365310368524   16.56392027479616    0.00818600541787
H          -9.61325713153175   18.18844615018814    0.41602992824118
H         -10.89739443152859   18.99109651761131    5.14157515389471
H          -9.36947728419608   17.15020489631150    4.56130079635231
H         -11.10006038423816   21.76964336444641   -0.70447177517018
H         -10.01668663842526   20.37649116849472   -0.71761136296411
H          -9.97940692337045   22.60860633387493    1.36585540337241
H          -8.82079080491024   22.39143069431084    0.05227145006148
H          -8.91134866959116   21.20490009636988    1.35545375702558
H         -13.13555683738395   20.39884945201195   -0.56675810348382
H         -13.34997199622345   19.21442087287950    0.72114989593725
H         -11.43022706619145   18.87738753297518   -1.63349561155475
H         -13.02240788629523   18.14526394766829   -1.47901131463529
H         -11.74384648483994   17.68857987864268   -0.35987850114635
H         -13.10636609614694   22.71931511850335    0.59677355338405
H         -13.78293167462301   23.07287866092838    4.81716958188733
H         -12.43872062809441   21.06588213909602    5.22810788607250
H         -14.39547594014808   24.48128378572964    1.35434291571635
H         -14.87513956606522   24.81097176207960    4.36569024430428
H         -15.72785014705652   26.37830975503529    1.85835868939334
H         -16.77316318343214   27.22921657761263    7.61682651370278
H         -18.36544318783079   28.00784320814281    7.42757940355177
H         -16.89940535246439   29.00582139024115    7.54492812646051
