125
 SCF done       -248.824718476077          0.000541353263
C           2.36323698090882    0.65871941812708    0.04356728580249
C           1.51380452661707   -0.30786229976241    0.51416633166310
C           1.84112280535740   -1.67981888514418    0.57862023182483
N           2.03650180395785   -2.80791385201190    0.66231928907358
C           0.19073331208940   -0.11821767524749    0.96858929998656
N          -0.89456061718810   -0.07265386695080    1.34230859040401
C           3.69276860389237    0.40581307984009   -0.49764942679707
C           4.20367022536534    1.62541062390214   -1.02150317138170
C           5.43352317946140    1.70347976701538   -1.60931856329553
C           6.22870094338311    0.53990701032033   -1.69809634918113
C           5.72868198873575   -0.68524583493989   -1.16948489061900
C           4.45007549682938   -0.73417425731296   -0.56843415428547
C           6.53125084995339   -1.84083927633211   -1.26033386629325
C           7.76701415814087   -1.79071406905311   -1.84571705871037
C           8.25803042950932   -0.58373233340341   -2.36589228963931
C           7.50526323336844    0.55679895566128   -2.29363410897026
C           3.22391874351841    2.70391515252378   -0.81746725092063
O           3.35524115726675    3.85090586264149   -1.19330410852869
C           2.09498539536364    2.08867956022273   -0.07095306143674
C           1.02042420267778    2.69432328057405    0.51406524238703
C           0.58397566438625    4.04049415631457    0.51458353442376
C           1.03509759203614    5.15934953835864   -0.13936569514264
C           0.29000784704300    6.32090605154096    0.13988823194679
C           0.50015504165976    7.62091391633328   -0.37450272370304
C           1.51242017093395    7.90633736592721   -1.36818208525789
C           2.31485971452717    9.01036093814647   -1.45612547176582
C           3.16315302038668    8.97691767080637   -2.58156305585539
C           3.01202319166427    7.87099717185338   -3.36972535157463
S           1.80281930011961    6.83071570964042   -2.70806238506635
C           3.72779045189669    7.51642047740992   -4.62049932774294
Cl          4.28965481242131   10.23349248640422   -2.92047725836225
C          -0.32833001852631    8.61887493483320    0.12209566087131
C          -1.36894665133004    8.37877949995830    1.05594612897032
C          -1.62118898946847    7.07045844340799    1.51873071961304
C          -0.75737855845861    6.07691222612194    1.06950902378888
S          -0.81922840763680    4.40274445213930    1.51845277062353
C          -2.73965402876663    6.79263441678311    2.39537418159573
C          -4.00437240650145    7.30579580726730    2.32527230571798
C          -4.84858932295282    6.81183583534662    3.34200089394456
C          -4.24823706259142    5.93180821760892    4.19591509936727
S          -2.59853054936971    5.68794474903238    3.73513327791164
C          -4.83388444065159    5.21881153539122    5.35834989698454
Cl         -6.49692500053002    7.29290277722560    3.48227884945188
C          -2.03609252175306    9.57144284481830    1.41864791389327
C          -1.57073177277666   10.67979578355402    0.76732231557955
S          -0.26027011097859   10.30081602911692   -0.33092465861563
C          -2.01081388784112   12.02379012205497    0.90519876039764
C          -1.56253267207422   13.12473978048053    0.20167543083527
C          -2.20726408174848   14.29591607341718    0.59927499914155
C          -3.15227839691519   14.08179741955025    1.61805375967815
S          -3.25153665938890   12.43881641167784    2.07733803502214
C          -3.74184899738908   15.32455025798598    1.95760195207894
C          -3.17087008222858   16.32500251448156    1.14903429231804
C          -2.19152246460801   15.71027099362749    0.26580999043747
C          -1.43254546448247   16.33210721381570   -0.68109023317478
C          -0.51108541562467   15.63104072989575   -1.48799077197387
N           0.23583509424529   15.06381010244523   -2.14684874115334
C          -1.52818243748461   17.72026910220970   -0.91547354535958
N          -1.61745736923852   18.84768069524273   -1.10391639761061
C          -3.67271746888669   17.59550905702430    1.41288226162142
C          -4.63091780134542   17.58165054904998    2.41539662956224
S          -4.89376412163606   15.95440412819207    3.04650461915574
C          -5.33633016153119   18.67072858117037    2.97872762623362
S          -5.98744476361750   18.55402310603127    4.56899862241885
C          -6.58208734337025   20.19430166945956    4.56602246161813
C          -6.25387756876772   20.82389687773945    3.34229241859874
C          -5.58865943826524   19.94451335160067    2.43159785714833
C          -5.33242575362250   20.37163986635972    1.11751212993046
C          -5.63867599665150   21.65220711761646    0.74887029010224
S          -5.32299314976365   22.18784414984639   -0.92395541284261
C          -6.15540808563393   22.57968020657167    1.69064355982704
O          -6.35213609113446   23.87023564234433    1.36894441485156
C          -6.47776745075196   22.15219767162768    2.95909337982939
C          -7.32512942508865   20.58911017497455    5.68378979334807
C          -8.04079983609340   21.74620737654726    5.85761705709525
C          -8.80929669987015   21.98116582274577    7.00076436820599
C          -9.66194469736339   23.03834495145227    7.21725519742240
C         -10.10578600154659   23.34884274205553    8.59431613154040
O          -9.97224779690815   22.65963613925713    9.57958010834880
C         -10.70709911265472   24.70450271164533    8.51522355522074
C         -10.70301148573833   25.12919931871583    7.17466038463331
C         -11.14191471635244   26.40225579010403    6.85326707505473
C         -11.61534219176041   27.23371901423763    7.86678789442936
C         -11.63669216779548   26.79021434420082    9.19885935521608
C         -11.17384944103517   25.51146380585388    9.52861870726766
C         -12.14312586378576   27.60237280391496   10.24519333800327
N         -12.56278561736482   28.16023661230726   11.15304533020257
C         -12.05294222267089   28.63977122246173    7.57667904695657
O         -11.93181059725119   29.52333723278456    8.37636608676439
O         -12.58115335301770   28.86206233845545    6.36677397093818
C         -10.19244690035657   24.04147389744578    6.33309757672532
C         -10.42364088566974   23.95141717376121    4.98009156715728
C         -10.16940101041900   22.82660931016251    4.16984279233375
N         -10.02109030264937   21.94551834199996    3.44808735695571
C         -11.08346559737613   24.96141084537026    4.25196942264672
N         -11.62437287490750   25.76570562244651    3.63534835533503
H           5.79471230319632    2.64329648913622   -2.00007181415551
H           4.10546519915669   -1.67663394818297   -0.17433056788904
H           6.14875065303023   -2.76800302142744   -0.85945877631457
H           8.37355899055469   -2.68146006169595   -1.91140778639063
H           9.23558774207205   -0.56238753889197   -2.82387806521814
H           7.87792395867133    1.48921090736050   -2.69201276086105
H           0.37640947934525    2.05202773203721    1.10367123059066
H           1.89271358613296    5.13372192934304   -0.78458272997056
H           2.34122216220213    9.80082170196053   -0.72945426939401
H           3.05017342499120    7.54907182510180   -5.47387937452940
H           4.13407570981888    6.50843724731061   -4.55310084096122
H           4.53928919856857    8.21951763204560   -4.79095440729959
H          -4.34361749666881    7.97093451998242    1.55288107524720
H          -5.78268128658770    5.67461547763107    5.63107055639738
H          -4.15883129711581    5.25519183340466    6.21123317716834
H          -5.00890301539726    4.17072963225407    5.11336013319054
H          -2.81772161522659    9.61742349865099    2.15523478804606
H          -0.80460940053029   13.05706866191868   -0.55790679174765
H          -3.31957537502543   18.49443960934182    0.94459980094575
H          -4.93304335785961   19.69336777059670    0.38269587625682
H          -6.54179648365891   22.70221815741593   -1.12899576855689
H          -5.96022603263355   24.05520154834347    0.49901256805952
H          -6.87510824936366   22.88445574252152    3.63710059827053
H          -7.38999392598480   19.84906018507931    6.47397102985484
H          -8.03786188807676   22.49804564784220    5.08950589634222
H          -8.68621146404571   21.31165396980438    7.84541735463793
H         -11.07271436356896   26.76741052453405    5.83960497097514
H         -11.17850655785646   25.16863293073473   10.55207178151668
H         -12.65279815651684   28.07323501513137    5.81095949275056
