145
 SCF done       -258.491423160588          0.000714161306
C          -2.84633382511518    3.55143442024204    5.03946798543028
C          -4.07008582892379    3.83321794102339    4.49396922625853
C          -5.14102724176502    4.39885536260365    5.21320375981456
N          -6.02799202347982    4.89389319931860    5.74846907519414
C          -4.41301862116144    3.52158514359350    3.16209633488159
N          -4.76540528329552    3.22626619185043    2.11030285010817
C          -2.52158909187909    3.56480717706850    6.45979212523520
C          -1.36061377287584    2.76216115604148    6.66516999382915
C          -0.84497650032725    2.55724476995622    7.91234646038895
C          -1.47039202308913    3.16277019347171    9.02578043658959
C          -2.62325512753962    3.97592664594963    8.82457123226385
C          -3.14034226030791    4.16582614794873    7.52288330268781
C          -3.23480513971777    4.57672057803303    9.94369612833475
C          -2.73505539906040    4.38323051161515   11.20248166859879
C          -1.60002782083863    3.58266655999450   11.39994412516757
C          -0.98170190425593    2.98541723540776   10.33521194268167
C          -0.87276884061856    2.26335342629880    5.36472075930382
O           0.05031298690392    1.51173846761018    5.15232225925133
C          -1.72501995286121    2.94183140219638    4.34637553130223
C          -1.32474928849780    3.02085238278211    3.05570281882696
C          -1.79236150096976    3.94078634272783    2.04940126338758
C          -2.19564282227297    5.23961091129573    2.39881057156805
C          -2.64124933222394    6.09254506260321    1.42289012444505
C          -2.69943749858532    5.67501563049427    0.08137566967425
C          -2.27386472829756    4.40404339103014   -0.27853465189468
C          -1.80578782436258    3.55510367185258    0.70358036367552
C          -3.24157513721092    6.75884915760268   -0.70797330192946
C          -3.50275220287386    7.84985447970888    0.14149285167905
C          -3.08323781780833    7.53362515789950    1.55859884355477
C          -4.24038234723023    7.68550472341324    2.55812141196720
C          -5.47849128104396    6.89889185493911    2.14275689410861
C          -1.84244134034043    8.34928760501053    1.99513332793275
C          -1.99050002207933    9.86421178697863    1.94380541044377
C          -4.09826781175445    8.98617695296481   -0.34969750275117
C          -4.41067555005305    9.07354209932672   -1.71459554015705
C          -4.13302739163846    7.98073182457723   -2.54735716811894
C          -3.55521999127807    6.82767206555244   -2.05811978745607
C          -5.01503746514408   10.25180629844433   -2.29228765591877
C          -5.07532120255005   11.46707654120812   -1.71597249723490
C          -5.66355204801239   12.62230243991428   -2.31784478540805
C          -6.43054852630231   12.72731947635650   -3.44395052241571
C          -6.82505711335471   14.05074062437225   -3.74924617961134
C          -7.59665811730946   14.50242862246184   -4.84084448063762
C          -8.08679167526404   13.61468320633220   -5.87615021515567
C          -9.28995409450673   13.66774051537098   -6.51988324281676
C          -9.42227309187406   12.67843003603721   -7.51836339334839
C          -8.33248363338387   11.87102070598022   -7.66290710785099
S          -7.10565850941238   12.32973427757752   -6.53074904214353
C          -8.12663145212800   10.74037027189628   -8.60258595207980
Cl        -10.85064852580191   12.51956744244133   -8.46716852076229
C          -7.86179905036263   15.86692719456142   -4.88962328538338
C          -7.37980213843482   16.78998144433655   -3.92891889514173
C          -6.57913109135230   16.34372991211240   -2.85769671988151
C          -6.34837178069544   14.97649916497689   -2.78524508651558
S          -5.40778055726690   14.18021357165878   -1.55951603075261
C          -6.00896848683994   17.28375297440049   -1.91400005331211
C          -5.42099088203815   18.48590529336520   -2.18610981267659
C          -4.97134886269358   19.14831243626211   -1.02351808047806
C          -5.21264109246792   18.47314691723077    0.13777844015893
S          -6.00439612318790   16.97110500600061   -0.20050635770755
C          -4.89335984488502   18.87638582449993    1.53013700487543
Cl         -4.18544488814167   20.67969971938663   -1.08637204785256
C          -7.80259551182533   18.11122149252262   -4.19919982024039
C          -8.54039491937389   18.22728516965961   -5.34536046644108
S          -8.76971428689759   16.68071737479772   -6.13566695690952
C          -9.08379898453195   19.41997900567139   -5.89772916648397
C          -9.04397242492538   20.68542704729184   -5.33739410256767
C          -9.64484128973457   21.63698031180901   -6.15816246010140
C         -10.14480663916654   21.09224084786460   -7.35422385281078
S          -9.88155510111367   19.40534227455697   -7.45710397493152
C         -10.71050259725513   22.13601788815589   -8.12358510514960
C         -10.56827870574382   23.34904628876245   -7.40942584859694
C          -9.91158834556646   23.06801748388839   -6.14423587945357
C          -9.61949355561240   23.94187201270849   -5.13923392566896
C          -8.97422039857230   23.52122091622208   -3.95643796378854
N          -8.45041444737666   23.18053572594083   -2.99480109144081
C          -9.95140921180795   25.31379986036645   -5.17898276980127
N         -10.21977877533346   26.42779158507410   -5.16350524837268
C         -11.06120166084874   24.44935055964554   -8.09547291416058
C         -11.58690397289194   24.10441516785574   -9.33474398444258
S         -11.46967877488463   22.35781708348087   -9.62580450171604
C         -12.20297734724135   24.85122221935278  -10.35682492236997
C         -12.35011937361334   26.20197427922151  -10.52608109060258
C         -13.08429120105963   26.80149758469589  -11.62963571180317
C         -13.87776324105844   26.15828235077147  -12.54586321805467
C         -14.56585597233517   26.81145524944035  -13.59029554803613
N         -15.15251437341309   27.27057914038582  -14.46411261557951
C         -14.15637624979583   24.77634321512814  -12.58989519615829
N         -14.44886213682400   23.67048211804478  -12.70058463518666
C         -12.88245553930272   28.24497099712008  -11.57220580591190
C         -12.08075647710342   28.54230778315697  -10.43562591493404
C         -11.73077834234229   27.29539963708796   -9.73659529151251
O         -11.04288950842183   27.21289759900279   -8.74014999233266
C         -11.72857713923175   29.81959487391489  -10.10848837543055
C         -12.17335289982993   30.88444754019554  -10.92303866946234
C         -12.97204306877521   30.59724476839468  -12.06732350232724
C         -13.31870601269682   29.26240208489632  -12.37965478972177
C         -13.40928669957554   31.66699473015016  -12.87477577094326
C         -13.07666817560078   32.95812842251119  -12.56694385628622
C         -12.29080584323599   33.23938875089025  -11.43940812701480
C         -11.84849360820505   32.22442284423940  -10.63497500897161
H           0.03075653654681    1.94046537702010    8.04950302950777
H          -4.01019011534174    4.79157709197173    7.39487072882030
H          -4.11021618157950    5.18966909508174    9.78639009207985
H          -3.21207747965205    4.84570124990716   12.05356242640296
H          -1.21823296107817    3.44153527879058   12.40000084011792
H          -0.10766362892862    2.36780478568648   10.48161465434818
H          -0.51415373947560    2.35709011536041    2.77231659576362
H          -2.12329641228474    5.56260154500916    3.42786182837826
H          -2.30479616388415    4.08343447040437   -1.30857292617570
H          -1.48075675555927    2.55822358673668    0.44547959975615
H          -4.50395737506299    8.74002872963555    2.64917114370616
H          -3.90199624291768    7.34218158689436    3.53877690707809
H          -5.89726066602899    7.29936945338348    1.22233838422490
H          -6.23617154463717    6.95647078325445    2.92087054868396
H          -5.23763400395452    5.85140951326953    1.97676504807159
H          -1.00703617151156    8.06013167487718    1.35167271288860
H          -1.59142027201760    8.04914749560382    3.01522071588046
H          -2.12968811044761   10.20477069645291    0.92137059626581
H          -1.08579247562197   10.32641910593985    2.33316868346107
H          -2.82732744030858   10.20357616439066    2.54857122674842
H          -4.35880445359779    9.79763055586129    0.31046870977924
H          -4.38129272890113    8.05029037383917   -3.59680464936232
H          -3.36198960650578    5.99031561811752   -2.71143346204317
H          -5.41251835539946   10.12847919306647   -3.29091415799490
H          -4.62930010778945   11.63573814595576   -0.74582392435160
H          -6.72279619353204   11.87539096181230   -4.02760197249496
H         -10.07730538421534   14.35589691343582   -6.27513306290184
H          -7.98970932204043    9.80688854678078   -8.05701202872999
H          -7.23996937668116   10.90462869862797   -9.21384170611155
H          -8.99261859562362   10.64418122588550   -9.25256618964180
H          -5.26814708937414   18.87065739352274   -3.17752494294612
H          -4.31125463097171   19.79446092953061    1.52051050162046
H          -4.32373768950433   18.09711689552359    2.03425705295098
H          -5.80718308866502   19.04605087832460    2.09943924052021
H          -7.57876199340783   18.94238182628434   -3.55769573049095
H          -8.59974856641652   20.89116508987319   -4.38174616185683
H         -11.03849036964279   25.46457971975249   -7.74207873146610
H         -12.61342008208576   24.22705991980767  -11.14213167469616
H         -11.12056647851595   30.01291862182472   -9.23722172689249
H         -13.92108215260263   29.08156182965014  -13.25535383242416
H         -14.01482766867968   31.44580870924134  -13.74150195960387
H         -13.41785404674970   33.77052482941384  -13.19100871940488
H         -12.03788435286289   34.26408938948120  -11.21138774175935
H         -11.24320183713883   32.43401010143206   -9.76519016660860
