93
 SCF done       -189.993496362342          0.000824316603
C           1.51208880207116    1.15476101199551    2.04996747226019
C           0.93825524501554    0.86144305514600    3.38880870377875
C           1.78967425361572    0.51806494783250    4.34518638498535
N           2.47197167271668    0.17015357491676    5.54334502214316
C          -0.45259161152389    1.00519612407955    3.57015126802169
N          -1.58440320523637    1.13373495464594    3.70082526574439
C           2.93909279893796    0.98402000699555    1.64827391026983
C           4.11721878778597    0.66573445577958    2.39330994794689
C           5.35019079262622    0.57935577104530    1.79388623648720
C           5.54243409575952    0.78644585563993    0.42159555334652
C           4.39609881394136    1.09453982529110   -0.35212899010199
C           3.15427116126522    1.17837585014800    0.29019778755687
C           4.54556271763873    1.30148979901621   -1.74131389163037
C           5.77737847311160    1.20400553872789   -2.32364014159389
C           6.91246849987239    0.89818037806463   -1.55204771952705
C           6.80156161762201    0.69344457919757   -0.20554119305401
C           3.17062123474779    0.34361510648663    4.46304603542089
O           4.24274137789167    0.38732970724431    3.78013706704164
C           0.63270256797289    1.59988399009670    1.17444663184143
C          -0.35036906687787    2.03518288763520    0.43616111190931
C          -0.78389964418329    3.41657717938668    0.36073587599580
C          -0.20443311618224    4.44310478197581    1.08079777509581
C          -0.67319380788146    5.75636950980009    1.03082726445426
C          -1.76174079936047    6.13260797035889    0.25780545757216
C          -2.38223685726339    5.10507733910425   -0.50834530898272
C          -1.89060517884505    3.75093408839390   -0.46184227302740
N          -2.55971581683431    2.90087599015706   -1.23107929558958
Se         -3.85012909624774    3.74738516458464   -2.04753254745319
N          -3.42478449474329    5.27879295458245   -1.30785267284118
C          -2.26669035003697    7.47328753870247    0.21437253049308
C          -1.76888674405836    8.58686143880712    0.86831116888689
C          -2.51803053865409    9.73222324322489    0.60253542005590
C          -3.59849887471436    9.48309100363340   -0.26095592859293
S          -3.68426839136945    7.84831839296134   -0.74668347896247
C          -4.29327315472946   10.70311630453381   -0.46656409746533
C          -3.65303754606286   11.71943474526283    0.26191389231081
C          -2.51460131017120   11.14087276629874    0.96017246727557
C          -1.63208836230615   11.78603015372568    1.77642199969741
C          -1.73348354397014   13.16590091021831    2.05008097995963
N          -1.81484963876682   14.28791102610533    2.27259088661548
C          -0.55838238597065   11.11353079529211    2.39603310061321
N           0.31776896503968   10.57279412370099    2.90134247545167
C          -4.26767032925546   12.96356293409207    0.11726543493218
C          -5.37175000549602   12.90023195837518   -0.71233205594784
S          -5.65319066824587   11.27443901234869   -1.32459813522744
C          -6.23926140897380   13.95454164302913   -1.09397902982820
C          -7.36306506904961   13.86530645255096   -1.89477482630187
C          -7.97929490401028   15.10389161569486   -2.06874941340544
C          -7.31771772320028   16.14553685163369   -1.39781119593959
S          -5.93955232810985   15.59868004878980   -0.54742016463224
C          -8.01613496210677   17.35602795644200   -1.64358193983047
C          -9.12055485107286   17.07647216117503   -2.46539439662224
C          -9.13541127041353   15.65326386231260   -2.75990767874111
C         -10.03938827391652   14.97635951392884   -3.52445231782112
C         -11.12715042036363   15.62295829179545   -4.14800629146425
N         -12.01449452028939   16.14271619666555   -4.65535836031006
C          -9.94438905763205   13.58609977379381   -3.74442382306746
N          -9.86907817559925   12.45639564012168   -3.92585237330675
C          -9.87232123411236   18.21106289086010   -2.77232831999013
C          -9.34697359058833   19.35104909843499   -2.19496311883197
S          -7.90130507081019   19.01506285638976   -1.25125266078367
C          -9.84092380618915   20.67686161619917   -2.30333246612234
C          -9.29970559116394   21.83194274260957   -1.77226829087470
C         -10.05717975343492   22.95905064903716   -2.09766131675469
C         -11.18081859076072   22.65576114856717   -2.87695220740965
S         -11.31114041396634   20.98809602308217   -3.21575665436217
C         -11.87874942843140   23.86607739559784   -3.15442094339576
C         -11.19179957072185   24.92620665121384   -2.55164387858207
C         -10.02502034526783   24.39929132714466   -1.86863721410848
C          -9.08829196495000   25.09749595712733   -1.16444925390689
C          -9.15254880664884   26.49848353560892   -1.01253245678414
N          -9.20013184875191   27.63697436310031   -0.88417593864810
C          -7.99028158989108   24.46434103031034   -0.54535821036256
N          -7.09723369051883   23.95239046465464   -0.03998086316582
C         -11.81609060002087   26.16817443710248   -2.77772494519658
C         -12.94112913089018   26.02678990554404   -3.53147606395460
S         -13.27365709297428   24.38801358310783   -3.98716002603352
H           6.19313211928718    0.33550774824883    2.42336769750002
H           2.29519442956831    1.41264140831318   -0.32272921498399
H           3.67107775919300    1.53650366610264   -2.33000596460132
H           5.89051854425910    1.36111413821029   -3.38590272269238
H           7.87487586823590    0.82604967512005   -2.03603299909487
H           7.66838635486640    0.45785220315318    0.39380251109946
H          -0.91727969296973    1.34531409838581   -0.17869992933453
H           0.63949652939942    4.21668054919931    1.71565682086576
H          -0.16960190482198    6.49865703082342    1.62936247568390
H          -0.90400663322702    8.56528219934732    1.50480227162826
H          -3.94232143798730   13.87549606559913    0.58521345543502
H          -7.70171249733294   12.93793316768648   -2.32062662207695
H         -10.75563435006429   18.22237947559370   -3.38537194397480
H          -8.39945097188211   21.83672978988292   -1.18425909354160
H         -11.45971044167042   27.11219496380556   -2.40819238036629
H         -13.61387592674639   26.79428939109291   -3.85793511792786
