126
 SCF done       -236.321372453783          0.000935045742
C           3.37218593811898    1.60582233931305    0.32512218194007
C           2.82616556808581    1.19231125650401    1.50999789525734
C           3.52900717585633    0.46090941887860    2.48738011497110
N           4.06294280019107   -0.09898308878071    3.33591148324332
C           1.49110856912469    1.43970674219396    1.88521986605320
N           0.40015725803287    1.57369788186767    2.21776988152640
C           4.64884237842326    1.16900840311323   -0.22171547852291
C           4.65958543413772    1.43159979531922   -1.62350629521526
C           5.72327823294966    1.09106991357851   -2.40853951860632
C           6.84576964522421    0.46931632414059   -1.81670902558425
C           6.84756628187749    0.21913154983910   -0.41369283000771
C           5.73050624775169    0.57818198508842    0.37421545009142
C           7.97735612906055   -0.39538874512596    0.16425725951196
C           9.05271145089984   -0.74912842625412   -0.60393973399066
C           9.04928597627611   -0.50366353246076   -1.98528905482918
C           7.96946254716037    0.09203705352421   -2.57830751537966
C           3.40771997986538    2.10835355055468   -2.00418205465721
O           3.03455176151490    2.43403443217576   -3.10656152274724
C           2.70479293404255    2.36978289721428   -0.71273225893608
C           1.74897111314430    3.32580300132426   -0.66616880489101
C           1.15599849125049    3.97194102752377    0.45845129456152
S          -0.51824694829986    4.41274257463812    0.30764600990534
C           1.66491177234985    4.33761230082768    1.69740234591453
C           3.08680846319221    4.22575462852847    2.08477863437977
O           3.98249663460008    3.89861905153754    1.32050854266437
C           3.31006785123841    4.54450513131771    3.48021168096745
C           4.45919519463359    4.41953866389659    4.23308732240660
N           4.19086349345981    4.81777002227596    5.49721673206657
C           5.15164059555719    4.88415522030397    6.56941561330456
C           5.84435686321903    6.24503613301940    6.60025597225294
C           2.89939658122698    5.21925936233927    5.58165064539520
C           2.30673831498245    5.05842493550594    4.34906552890806
C           0.94459381621749    5.34623678266212    3.93002250987558
O           0.11925160308367    5.87248564886589    4.65888826695511
C           0.68080701504795    4.92464935902971    2.54157650667939
C          -0.56923791021191    5.01607622263572    1.93589436953828
C          -1.77194294045356    5.47723465732203    2.52243197159577
C          -2.95959920411283    5.56841278043485    1.87783833388829
C          -4.16793676471370    5.96744654739026    2.49947969558340
C          -5.41050869912165    6.09781739356939    1.89857495487201
C          -6.39859218679470    6.46743229559798    2.80887243946096
C          -5.90087937877572    6.61595047323855    4.11665710130791
S          -4.22657252405431    6.31587336614227    4.22238276578391
C          -6.97790596099274    6.95482639864438    4.97303751498185
C          -8.15683407291555    7.02467179638814    4.20877853892270
C          -7.83215298837698    6.72226217693639    2.82424742831956
C          -8.68968861038986    6.67467575628738    1.76510317010123
C          -8.24844352340485    6.38300377987032    0.45706089145875
N          -7.89528942065216    6.14853344913194   -0.60831570891154
C         -10.07844401894524    6.89297824667370    1.89352950316097
N         -11.21261570120739    7.04144980050224    1.96981792885839
C          -9.28116038290476    7.34837784268589    4.96639218835618
C          -8.97154823489127    7.52489123769304    6.30141976722464
S          -7.25569282648438    7.27588303815472    6.62089243469173
C          -9.82467866349178    7.78318362153283    7.41218482669338
S          -9.30617018640961    7.21040034552540    8.96743451912481
C         -11.07186378515094    8.39807572412161    7.48446162654671
C         -11.71571433097170    9.12648566025399    6.37038103260647
O         -11.17859288445735    9.34976259826027    5.29951723330350
C         -13.04833095400912    9.59497547517916    6.70722709327628
C         -13.98370469979547   10.21250024612120    5.90585977631227
N         -15.08746444885034   10.46672297463109    6.64794790433571
C         -16.26161823263561   11.15680502598573    6.17613826845001
C         -16.11414375073894   12.66739846871271    6.34621022653290
C         -14.88565213531524   10.04779387580883    7.91888798356403
C         -13.62823244741717    9.48861452371434    8.00283865580985
C         -12.95011824794347    8.90589423207487    9.14582811682664
O         -13.43253460491058    8.86066742802972   10.26433347767521
C         -11.61658233323608    8.36522468656364    8.79799625439456
C         -10.77500027729894    7.76020485151100    9.72686457003145
C         -10.98655901270200    7.56956662782185   11.11198507083373
C         -10.07985657113760    6.96710517153133   11.92792970458658
C         -10.30780008114220    6.78237363087251   13.30847284379672
C          -9.42597720189659    6.17598355875830   14.16062463201784
C          -9.60114917823371    5.95228021192062   15.58364055557395
C         -10.67445695238857    6.32197267881926   16.35313908940681
C         -10.78105448517777    6.06749751370367   17.73660363308154
N         -10.93739280957911    5.89344015225925   18.86069115546708
C         -11.82339369897724    7.00434661112987   15.90130281257037
N         -12.79231576737487    7.55815201038290   15.63001768473128
C          -8.41713937546147    5.25367111518864   16.07517127273257
C          -7.52253872547004    5.05266699614318   14.98648762013427
C          -8.10722810891126    5.61850461586405   13.75889837705622
O          -7.60012271999366    5.61808331966810   12.65586490349428
C          -6.32328639392188    4.41980225759532   15.14172482280254
C          -5.95453888022925    3.94723046137996   16.42080591569828
C          -6.84244073665836    4.14502931603468   17.51706254817443
C          -8.07787984128492    4.80527380632239   17.32451361730747
C          -6.46530119344775    3.66964155444034   18.78963489795067
C          -5.27031618809248    3.02858435021248   18.97187470733956
C          -4.39723497714226    2.83374825475719   17.89120084683431
C          -4.73190536208706    3.28378907248164   16.64293246759840
H           5.71017680075619    1.29392594608756   -3.46918308498169
H           5.76068648339516    0.38903641675159    1.43586087876913
H           7.97379433452702   -0.58549347350838    1.22762834029269
H           9.91232299536152   -1.22100072859621   -0.15182376779237
H           9.90654866993631   -0.78879079792049   -2.57664090580315
H           7.96138090085340    0.28339973877474   -3.64140310088815
H           1.38331685982816    3.65462733318041   -1.63550789438971
H           5.42502485989261    4.05797194643937    3.94035179856223
H           5.88918938140944    4.09106714702111    6.42350539609122
H           4.63072901620275    4.70794066455957    7.51390191264044
H           6.36672463217910    6.42546758565775    5.66379979527131
H           6.56387888108875    6.27718628717853    7.41330806016934
H           5.11509668958694    7.03799866432752    6.74735857962777
H           2.47249426360838    5.57750958248121    6.49723273212687
H          -1.69660889292083    5.75437990883983    3.56635868867195
H          -3.02679974941546    5.31494930840251    0.82664768564240
H          -5.56953804546132    5.92425145397850    0.84967928028106
H         -10.27523934541780    7.44934697144170    4.57477076466670
H         -13.92511031201965   10.45944505880127    4.86446512096649
H         -17.12572108796097   10.79890389801943    6.74149819622499
H         -16.40744034032118   10.91185807563515    5.12100868090852
H         -15.97883577805127   12.91933595570450    7.39521705177135
H         -17.00317533789879   13.17101243317331    5.97788067357351
H         -15.25236742281230   13.02814455870740    5.79002236214928
H         -15.63091743304670   10.15595404696303    8.68172805148161
H         -11.92876789746689    7.93326821118735   11.50244999620023
H          -9.14443202117329    6.60980092134490   11.51769586599881
H         -11.25006620022217    7.14931332030814   13.69516871145952
H          -5.66457284542867    4.28108999901246   14.29718506920065
H          -8.72575711091979    4.93757704732495   18.17614779530819
H          -7.14079785399294    3.82183246846123   19.61868697284449
H          -4.99103104901920    2.66747173181904   19.95041913067000
H          -3.45845377935894    2.32520034250990   18.05289314729760
H          -4.06400383673285    3.13697409752251   15.80664433598359
