105
 SCF done       -216.176009024792          0.000427942322
C           0.96785580873999    0.88060728234020   -1.16676362874714
C          -0.33188023744903    0.98414251986232   -1.59027301607551
C          -0.90389293116370    0.15051210079637   -2.57465830231473
N          -1.41906578042268   -0.50347852208127   -3.36410458134716
C          -1.27359493059205    1.86722932683892   -1.02921148488864
N          -2.07548522775303    2.55869572641374   -0.58463562609352
C           1.89329105069807   -0.17449394060791   -1.56684897534005
C           2.92242832047987   -0.27399113761756   -0.58495143991063
C           3.91457686892341   -1.20724781374253   -0.67791809123877
C           3.92990385906170   -2.08810640749724   -1.78272250424223
C           2.91696324392298   -1.97788202432158   -2.77936980188347
C           1.89655431214779   -1.00723399476796   -2.65300033522273
C           2.95149169352138   -2.85476837059274   -3.88243743279391
C           3.93546301361539   -3.79901328366628   -3.99538252873135
C           4.93055042402739   -3.90866621092469   -3.01257610760072
C           4.92780230919943   -3.07163645829475   -1.92982362150097
C           2.71912955108785    0.76387921260851    0.43815091765417
O           3.35140407518901    0.95784259269519    1.45033514863012
C           1.58325552789657    1.59486161490994   -0.06695199874703
C           1.39074640523845    2.82458341359438    0.48117880225379
C           0.66938273922738    3.92602045638456   -0.03332547874331
C           0.26650263422043    4.17553209739521   -1.33684967745265
C          -0.40083364590452    5.38798260279040   -1.45701267520530
C          -0.50264098825085    6.08141388573258   -0.23584001047310
S           0.23630130188105    5.24462369349697    1.04739170799000
C          -1.21107216194872    7.28848721093864   -0.46826292179239
C          -1.56191261948841    7.35306587787453   -1.82762168686887
C          -1.07350077352400    6.15524532689098   -2.49221842080686
C          -1.23229512557960    5.79911983915279   -3.79854710167828
C          -1.91544295044849    6.61472008307552   -4.72552581971803
N          -2.46453233550222    7.28094256878873   -5.47944043493791
C          -0.71351531405461    4.58470747955973   -4.29682808785533
N          -0.28075449785950    3.59792488972425   -4.68867576738017
C          -2.26122874468134    8.51623091807260   -2.15285536894667
C          -2.43956361918047    9.33443484094246   -1.05511827445356
S          -1.73941155666115    8.65513336098640    0.40559972604901
C          -3.08108221413915   10.60360487377075   -1.01400923851785
C          -3.22970534596914   11.41887058754597    0.07393131695392
C          -3.88732166882395   12.63469599693094   -0.22217298148507
C          -4.23000869733272   13.71454121552671    0.61272799962483
C          -4.88187552312531   14.79936715894585   -0.00109258025908
C          -5.20221697902335   14.70709511265813   -1.38055345990257
N          -4.91222640756877   13.69022335418675   -2.16112343139800
C          -4.26174153025057   12.69873132100049   -1.59362801642530
S          -3.77324028397977   11.29022864012078   -2.47467934325892
S          -6.01322884778485   16.12277450129833   -1.98859689475448
C          -5.86629341347998   16.86169519664317   -0.41949865317729
C          -5.26420895920088   16.07722694560704    0.50898221780285
F          -5.00744840806170   16.49992359060537    1.75568631124821
F          -6.31375646829964   18.09538740570899   -0.23012746730930
C          -3.95461851732152   13.71039808224917    2.03308758941973
C          -4.81419207679882   14.09004471410582    3.03797484540971
C          -4.22488731892916   13.98367752845506    4.30124664916729
C          -2.90341788570094   13.51655347786796    4.24575114392902
S          -2.39413607120547   13.19648301672530    2.64916622588317
C          -2.38560077707592   13.45820061616329    5.56542713662254
C          -3.38399011959740   13.90485334677046    6.45539554668201
C          -4.57924787787675   14.22845904548304    5.69012933067282
C          -5.78477375327292   14.64717965226428    6.16767698589818
C          -6.04891196786888   14.81380132461955    7.54507946869449
N          -6.29844997323781   14.93608705375776    8.65680938127310
C          -6.87602506138627   14.90667597309369    5.30977150659052
N          -7.76668414654523   15.10501553809893    4.61588575906175
C          -2.96661619883883   13.91940210121093    7.78083126677642
C          -1.65748622299089   13.48016194174917    7.92069544213770
S          -0.95143663086307   13.02395451954787    6.36556526442872
C          -0.84993157285950   13.27833243339785    9.06099791753192
C          -0.99402213609679   13.77401319980721   10.32526349438521
C          -0.15721125378670   13.39816606562622   11.45270691667478
C           0.64111355195591   12.28672128513216   11.53700489395126
C           1.41221894224893   11.95477649128577   12.67077648731378
N           2.06622541277878   11.63270403526953   13.55750387371772
C           0.77529651397091   11.30338538490364   10.53457896332858
N           0.91778752971480   10.45533025707230    9.77307823630454
C          -0.39039938259016   14.35805194560760   12.52314285319371
C          -1.40892237590548   15.26053054814479   12.10483743127983
C          -1.85213382969502   14.91473778257235   10.74444580258070
O          -2.69654546359224   15.49372475490534   10.09564829893593
C          -1.85003002956186   16.27443842039874   12.90544467440617
C          -1.27989511300888   16.43534739931910   14.18794167023958
C          -0.25551751027057   15.54014836095138   14.61260038498832
C           0.18048754176663   14.49970351290334   13.76045898511672
C           0.30891791130290   15.71292256641048   15.89282014622180
C          -0.11731840529398   16.71981568541955   16.71564235371375
C          -1.12588651866416   17.60032221268001   16.29653162888727
C          -1.69530108656706   17.46079912911581   15.05980373554550
H           4.68006284296431   -1.27209796887214    0.08097497020370
H           1.14887313715724   -0.93618588940752   -3.42744351110543
H           2.18141866631480   -2.76850717602768   -4.63472267623618
H           3.95217219300654   -4.46746277705428   -4.84303620339680
H           5.69963751670184   -4.65911635028548   -3.11782990440013
H           5.69171312735652   -3.15098034699079   -1.17025502844726
H           1.92423193346591    2.99549982558886    1.41171772502486
H           0.49409618244883    3.51921846357258   -2.15668644498975
H          -2.62542066402572    8.77133553840889   -3.13173870686405
H          -2.87431869800976   11.14258919588909    1.05022405241714
H          -5.82593270970593   14.40506901679687    2.86049921082133
H          -3.56851186175554   14.23289693838685    8.61308026745063
H           0.01714245065858   12.65467687892618    8.87449130101182
H          -2.62601911961496   16.94334092397234   12.56409939065665
H           0.96270156295521   13.84352568699270   14.10778506878432
H           1.08405666745116   15.03164285522062   16.21174653308193
H           0.32055313844646   16.84316621615753   17.69479589376837
H          -1.44933689589146   18.38968356079000   16.95837492863387
H          -2.47241255085657   18.13534934957895   14.73152996612085
