104
 SCF done       -208.031812021739          0.000830613842
C          -0.27049337287402    0.59592501986379   -1.64911888051064
C           0.60252286737574    1.32994685115825   -0.88781682832819
C           1.30504854172998    0.80913658350996    0.21914429835696
N           1.90373637310672    0.43188489120117    1.12232443721626
C           0.97342213237782    2.65521248765963   -1.18294619024304
N           1.31390566411157    3.72866215436599   -1.40818375639610
C          -0.48488848121241   -0.84234519494626   -1.51743113893097
C          -1.01447762165980   -1.33666571674145   -2.74535885440735
C          -1.27644502632542   -2.66330473523510   -2.93161235650135
C          -1.03215694127772   -3.56819536860626   -1.87411278071432
C          -0.52907688381964   -3.07602506306065   -0.63492436842036
C          -0.25636205510303   -1.69765011787133   -0.47401690367263
C          -0.30500810638950   -3.98766101815510    0.41645197510284
C          -0.55864007675157   -5.32228746908236    0.25191311228127
C          -1.04914926878987   -5.80652704829566   -0.96989925042547
C          -1.28107736427558   -4.94810204074535   -2.01016857322595
C          -1.22400424213759   -0.21149468133628   -3.67060595871848
O          -1.60877513091327   -0.24251914792536   -4.81711468814213
C          -0.91905925561730    1.01437837588821   -2.87345601029330
C          -1.35501864948031    2.21267110502155   -3.35058589102595
C          -1.53984183488336    3.43875239689205   -2.67692771030700
C          -1.61253103210761    3.70219416022842   -1.31620794450538
C          -1.83998894287000    5.04655753712593   -1.05196879978059
C          -1.95901616687941    5.82310406819720   -2.22240298235853
S          -1.79680235308681    4.89372611914271   -3.63636862759409
C          -2.18411261707477    7.16899692182038   -1.84325934675761
C          -2.19267813158422    7.24864748390373   -0.43920913831610
C          -1.96640851883433    5.91836743725208    0.10416816169589
C          -1.86505932835652    5.55643271183953    1.41505385847047
C          -1.99128125727140    6.48553822249792    2.46931449655383
N          -2.10240035396871    7.23380202682064    3.33074143088166
C          -1.63067910795981    4.21590504174088    1.78890206077268
N          -1.45353088467926    3.12083804264363    2.07947690611176
C          -2.42147577106255    8.53989592148483    0.02857167862665
C          -2.60251434005021    9.44771698953251   -1.00172748935218
S          -2.46983792792317    8.67963049117940   -2.57778098754121
C          -2.88338698231455   10.84852382420610   -0.88115410708630
C          -3.30669230917776   11.65626120339896   -1.94311641653316
C          -3.63360203956684   13.02735317974449   -1.79900896099273
N          -4.03339763085001   13.62457535359098   -2.95509715572079
C          -4.04254803766188   12.82131026359878   -3.94211639525633
S          -3.55030928140290   11.18610222569396   -3.60087215866838
C          -3.52949576196142   13.69268266814868   -0.55738559169514
C          -3.06397269189265   12.89689621385930    0.49449099307298
C          -2.76133569739359   11.51882354055638    0.35658649075655
N          -2.34289935752036   10.92905701057730    1.50979344347376
C          -2.31210038578797   11.74051824623812    2.49001714999532
S          -2.79692886142903   13.37778375113934    2.14470028444631
C          -3.88940196327307   15.07518833718205   -0.43181435030786
C          -4.61430333941768   15.82105080388723   -1.34532241698516
C          -4.78012799642441   17.14046202066445   -0.93753367518259
C          -4.17174173728897   17.41348610739129    0.30053805179473
S          -3.41326961400431   16.03361035000831    0.96258970242723
C          -4.37849516009113   18.77912816196109    0.61254961552348
C          -5.12926893411939   19.36845185307144   -0.43060444786724
C          -5.39881779148067   18.35745682819964   -1.43952903987188
C          -6.06870540781205   18.50896487320839   -2.61686926323389
C          -6.60104240977877   19.74336268991005   -3.05023817735429
N          -7.03005265630590   20.73085345726967   -3.44285989863445
C          -6.26579969329296   17.43349980416199   -3.51039240274427
N          -6.43316337819742   16.56994665541811   -4.24594522740162
C          -5.39512754293128   20.71411433369158   -0.22139498384417
C          -4.85193939193171   21.17741770873895    0.97030823980251
S          -3.98772290630736   19.89398711073968    1.83332836021644
C          -4.80576516778875   22.45956186304876    1.55328071766828
C          -5.48232111516684   23.60448882513347    1.23193090199879
C          -5.22625588689708   24.89813690151041    1.84402875730143
C          -4.13382406888980   25.24800505722468    2.59621498602495
C          -3.92919607386530   26.53484737970406    3.13711345516764
N          -3.70492149267500   27.55504547058923    3.61366021133075
C          -3.04321121904137   24.40921813820068    2.90677030695404
N          -2.11209454521247   23.79868392709706    3.19020292526990
C          -6.29125576276538   25.80676896154791    1.43768896352189
C          -7.14934652987248   25.11814087625579    0.53542224979582
C          -6.67401112389507   23.73708545695558    0.35441601955903
O          -7.20096014026239   22.88780615205849   -0.33287878780960
C          -8.23524447266095   25.71818853049977   -0.03355302134818
C          -8.52032725551689   27.06495547416197    0.28325476391656
C          -7.67352293331412   27.75970762745791    1.19465717179370
C          -6.55535035886522   27.11022290364360    1.76677986750031
C          -7.97124290249412   29.10141394299911    1.50870738973185
C          -9.05060944847410   29.72876572498468    0.94839738768489
C          -9.88211265559148   29.04422065604437    0.04947284135873
C          -9.62249702642633   27.74053974470437   -0.27618036655597
H          -1.66759421454775   -3.01872368236496   -3.87332995655395
H           0.11431339340722   -1.34930878911191    0.47737371726231
H           0.07604994645398   -3.61064582709882    1.35405535511258
H          -0.38181215367813   -6.01288104920703    1.06278399634436
H          -1.24309377011035   -6.86270271354731   -1.08269186476174
H          -1.65974875503525   -5.31472000944204   -2.95310037853709
H          -1.67010720848094    2.19307178448339   -4.39013581098314
H          -1.55076462001265    2.93551994895892   -0.56596551405890
H          -2.46289481685157    8.83101865858168    1.06156594147333
H          -4.33084732210195   13.10749716031657   -4.93437884919331
H          -2.00898132204593   11.46075616355079    3.47973946315636
H          -4.98935670865861   15.40070961030336   -2.25909512323476
H          -5.95988359009501   21.34357072428488   -0.88431460675023
H          -4.12050780983940   22.52340897225055    2.39085082792133
H          -8.86580346159619   25.17144059071035   -0.71882579991349
H          -5.93791290904173   27.66315277853228    2.45657358747449
H          -7.32716038289710   29.62526341304317    2.19971450713275
H          -9.26937762660483   30.75703342626106    1.19455803006096
H         -10.72927096532401   29.55486939307502   -0.38346995680572
H         -10.25870109808674   27.20773181701433   -0.96765893042611
