148
 SCF done       -253.676387243965          0.000903135684
C           2.44225495420786    5.09057947528909    3.11248027387652
C           2.34422628196615    5.50373848217536    1.81070709017963
C           3.27269125531732    6.36149929446286    1.18762701238034
N           3.97805988948796    7.08816013538588    0.64625000571644
C           1.34345345199697    5.07151094009485    0.91515732908827
N           0.60428100744902    4.71397594137013    0.11314371631544
C           3.60457751773167    5.27983506438701    3.97281798570425
C           3.54692422802399    4.32365934127021    5.02912613146346
C           4.53372434751492    4.23286437691113    5.96788937372412
C           5.63514175497738    5.11553482507285    5.89870837868119
C           5.68905024947226    6.08565038734764    4.85638676709074
C           4.65665659030358    6.15251979559577    3.89322162031463
C           6.78962531972947    6.96515209289955    4.80322861883150
C           7.79209200815159    6.88895159477475    5.73108884762357
C           7.73944404747878    5.93204225890729    6.75573707506612
C           6.68429621411666    5.06455138466824    6.83764196092740
C           2.30306124931227    3.54017364421501    4.91137501162828
O           1.93877165934591    2.61072108114786    5.59432070478830
C           1.54259603479232    4.18025308586030    3.79939761889822
C           0.21620020628067    3.94334664339253    3.66421552759242
C          -0.74579534992382    4.69959174782001    2.90555816170231
C          -0.59778845202875    6.08353405719460    2.72167872858799
C          -1.51127015375426    6.76273606291940    1.95810311911190
C          -2.59052945453588    6.08513666126036    1.36347341633053
C          -2.76866862039597    4.72474254731508    1.57324692049107
C          -1.85549770466381    4.04667834571938    2.35398046822928
C          -3.37104005269860    7.04341803955053    0.61331033956956
C          -2.77211440051263    8.31063777890456    0.73897224161655
C          -1.50133851721654    8.21980710934358    1.55249437452373
C          -1.51027629189133    9.16724010329999    2.76045264193450
C          -2.69027035572993    8.90916400288134    3.69052471250906
C          -0.23998171795507    8.42213627498829    0.67690525092326
C          -0.14550667520961    9.75087184571808   -0.06006228937937
C          -3.36208531593545    9.41751357953680    0.17984084071378
C          -4.54519887207460    9.27769403849390   -0.56230218630744
C          -5.10494259232349    8.00035652565736   -0.70898848823692
C          -4.53911285310780    6.88881895490251   -0.11985718055579
C          -5.20993288023460   10.39838560689725   -1.18496830436929
C          -4.87145244377408   11.69550649562449   -1.05644960051937
C          -5.54905853448544   12.78406512871682   -1.68663671725888
C          -6.59823511918082   12.78536886961856   -2.56114999871291
C          -7.00054777050898   14.07724989403504   -2.97656669562642
C          -8.06828853795128   14.42385121311090   -3.83003350901426
C          -8.87757524893322   13.43453473323768   -4.51254503803785
C         -10.21968513406483   13.47394300195628   -4.76182689083434
C         -10.66817753101504   12.37054664844694   -5.51939137871001
C          -9.68871328406087   11.48687450367158   -5.86739434785959
S          -8.16605364976748   12.01728596616033   -5.23941215319438
C          -9.80107591850227   10.24306795473256   -6.67055996568397
Cl        -12.32014161716024   12.16667047464152   -5.96041101759229
C          -8.30364159185991   15.78310707457903   -4.00852954574298
C          -7.52357094268098   16.79921896697940   -3.40209944876143
C          -6.45346706935274   16.45409339924302   -2.55209989638652
C          -6.22086270856657   15.09472402704571   -2.37049000868477
S          -5.00141452473092   14.41210751709178   -1.33617064315576
C          -5.64411757099206   17.44300471213528   -1.86946297077808
C          -4.30231956639494   17.40290752520502   -1.62113499426813
C          -3.85268901611861   18.50317285553973   -0.85895668047802
C          -4.83075826948786   19.38550103148121   -0.50566225282311
S          -6.35455010567161   18.85878602258973   -1.13753295696346
C          -4.72045541698648   20.63132105459604    0.29446413313247
Cl         -2.19933758167893   18.69888827158264   -0.41843648433252
C          -7.93361770667548   18.09136111490436   -3.80441348454827
C          -8.99537699258402   18.09048025947677   -4.66627344814605
S          -9.53770420340919   16.46594721046896   -5.03099923436594
C          -9.65274048166569   19.21941079716483   -5.22919729239633
C          -9.31275603198127   20.55380503266128   -5.06607375947968
C         -10.17991203799171   21.40235346913448   -5.73915909987625
C         -11.19022980165611   20.71756245118517   -6.41763457471472
S         -11.06796754760124   19.01489465576190   -6.23423602689423
C         -12.03447850372010   21.65123577841024   -7.05566583750690
C         -11.55975736403362   22.94590159357359   -6.78930790751445
C         -10.32236243546715   22.89415550013544   -5.92471977337840
C         -10.54833837180865   23.60738825837437   -4.58892573049472
C          -9.11335706591294   23.48544496039077   -6.65554653865564
C         -12.32749168739300   23.93591153048883   -7.36364711549575
C         -13.40768697873237   23.42455569544877   -8.08273741788803
S         -13.44103671182571   21.65466170782528   -8.01953710766378
C         -14.45200060391642   24.03353692800063   -8.79297640698831
C         -14.70956545386682   25.34889875847932   -9.09499120660835
C         -15.89215381714572   25.77668334249291   -9.82241364772266
C         -17.01247765650313   25.03389258862613  -10.10123900689698
C         -18.12851910881704   25.52716852839080  -10.80850912129761
N         -19.07239750932344   25.85898891457579  -11.37270940015727
C         -17.25489880496588   23.70191803610675   -9.70605566452377
N         -17.55253124354234   22.62995680134702   -9.41737265836472
C         -15.72824322081143   27.18694372971175  -10.15944785997409
C         -14.51562945953662   27.64662581396479   -9.57629615164990
C         -13.85694357018882   26.53550819878433   -8.86660874373768
O         -12.81610795765060   26.62303118420267   -8.24256722558175
C         -14.09251310487261   28.93728035253153   -9.70689949565240
C         -14.87782325214647   29.84699300162904  -10.44997990075153
C         -16.08955308105459   29.39346156618928  -11.04518782059996
C         -16.50300971282261   28.05013240655723  -10.88738189654105
C         -16.86340493731938   30.30698775768611  -11.78915503489872
C         -16.46195390080862   31.60665083828382  -11.93815427216607
C         -15.26882650765839   32.05237289464876  -11.35062499213879
C         -14.49383178694386   31.19116197490287  -10.62211975226642
H           4.47618110817517    3.49522449263118    6.75449931273669
H           4.71828445351915    6.90095895137044    3.11841751509305
H           6.82713726047016    7.69759871961195    4.01016985072711
H           8.63226479801174    7.56522662830528    5.68021197366040
H           8.53908547113021    5.88603616112588    7.47982259773421
H           6.63845130371176    4.32588333378759    7.62450227045540
H          -0.16640296054050    3.10536606576668    4.23880077611378
H           0.21710140390341    6.60346024889597    3.20522998923128
H          -3.60343255367392    4.20320299362530    1.13053137189879
H          -1.96515939714106    2.98415764642258    2.51335388671385
H          -1.55403493124262   10.19802409992051    2.40666644089622
H          -0.57643603004805    9.04331397937609    3.31340049225880
H          -3.63117560928194    9.04497328945047    3.16166472269096
H          -2.66449745818040    9.59958704832831    4.53054880921595
H          -2.65987754253338    7.89323218716865    4.07864284700731
H          -0.20665201941850    7.61169162225809   -0.05602880665533
H           0.63401592625674    8.31377871563777    1.32438038642336
H          -0.93733540444330    9.84254189211872   -0.79846202448355
H           0.80875012338830    9.80054380640733   -0.57970385855717
H          -0.19886854663128   10.59210844304067    0.62645979866938
H          -2.92415697686063   10.39326383953717    0.31245135438078
H          -6.01240956685876    7.89358797115153   -1.28612891857812
H          -4.99835621932794    5.91757023024825   -0.22585583656368
H          -6.06266139994447   10.14377060183001   -1.80026296375453
H          -4.03812806633508   11.98530554801349   -0.43213943136203
H          -7.08124032712035   11.88552423377906   -2.89097022213862
H         -10.88092295242000   14.23605313369579   -4.39390969687858
H         -10.83361990389387    9.90136329885933   -6.67536859542552
H          -9.16381267416192    9.46193810979552   -6.26112519758576
H          -9.49335933443469   10.42403689618754   -7.70138017734001
H          -3.64262908267670   16.64064415520671   -1.99126384810640
H          -3.67729882330763   20.81877496905333    0.53622518244637
H          -5.28674339444704   20.54317607503964    1.22158028425770
H          -5.11584595564345   21.48172901038851   -0.25966181508470
H          -7.45465581423941   18.99299670336118   -3.47412085530867
H          -8.47040301637282   20.87218847618823   -4.48070923907928
H         -11.40530237099076   23.18117856808002   -4.07228355981302
H         -10.73470439103595   24.66415882559525   -4.76121028885311
H          -9.67109641511654   23.50187604660921   -3.95548123993076
H          -8.95424175792301   22.97188761179498   -7.60104254033094
H          -8.21920276749392   23.38000413586034   -6.04616563537553
H          -9.28264630878612   24.54008250980464   -6.85618142108617
H         -12.14504432791644   24.99213109752245   -7.29168112913657
H         -15.17035304189791   23.31804255660924   -9.17635702015525
H         -13.16854825442133   29.26019834726018   -9.25022931947038
H         -17.42381658061175   27.73959684650182  -11.35433414532444
H         -17.78207630066173   29.95920340122431  -12.23856246202414
H         -17.06210703433955   32.29871375403184  -12.50987019490578
H         -14.96665679058590   33.08125220213456  -11.47824329073919
H         -13.57371978739237   31.52860641727965  -10.16736627667750
