126
 SCF done       -251.792798152198          0.000400448173
C          -2.57235714602882    1.86608616703037   -4.98212574927210
C          -1.61875150545876    2.80019431363751   -5.29524927520441
C          -1.36147498163176    3.24712174899431   -6.60618037712294
N          -1.13017699642395    3.65705104177449   -7.65318340320215
C          -0.73220487465218    3.33935512270721   -4.34148486913698
N           0.02462493798292    3.76474109886660   -3.59005825947776
C          -3.30831044672062    1.05390513145672   -5.94428248295641
C          -3.75900531712079   -0.12703600053745   -5.28400731290956
C          -4.44921923020002   -1.09919847801156   -5.94834741548922
C          -4.73534501822020   -0.92501290226094   -7.32149843447366
C          -4.30039639990139    0.26026859250040   -7.98249177460536
C          -3.57854375045353    1.24682583653823   -7.27160520775884
C          -4.60008111807398    0.42379045958721   -9.35005965794625
C          -5.29385793893057   -0.53664644151939  -10.03464650597393
C          -5.72089095475175   -1.70347480172787   -9.38351208364818
C          -5.44680328445212   -1.89382122939528   -8.05626205749398
C          -3.37604436848101   -0.06775167141950   -3.86156615182621
O          -3.53488697594026   -0.90755986131390   -3.00653731443535
C          -2.80827437990662    1.29940771989289   -3.67217937150620
C          -2.72728992164327    1.81141195222424   -2.41431229446473
C          -2.66998794695230    3.15433727626199   -1.97920498943024
C          -2.40450398368844    3.56418316959642   -0.67998104166227
C          -2.51095965213202    4.94155647405276   -0.52546514537633
C          -2.88890616118401    5.59439370993077   -1.71673217846050
S          -3.09966026747170    4.51628823632082   -3.01450667839785
C          -2.99602013300898    6.98058800062346   -1.45784759673828
C          -2.69314878684497    7.21145808457846   -0.10455235723126
C          -2.36814197771433    5.93739392383974    0.52318075171200
C          -2.00451781947731    5.72709055950827    1.81987100487025
C          -1.89111981805958    6.78392692717429    2.74858643101045
N          -1.79708288044578    7.64091464048858    3.50402863544418
C          -1.71985871212136    4.43880859726993    2.32152940701705
N          -1.49385716447135    3.39567301506301    2.73935573715283
C          -2.78785984708523    8.55481786912360    0.25370722488878
C          -3.15078773303175    9.35055607611745   -0.82118194586530
S          -3.37802021218746    8.42082607791223   -2.29235617877295
C          -3.35118571315767   10.75589122648831   -0.82450980649231
C          -3.42785642952220   11.59953991256003    0.27053311589049
C          -3.65223175167547   12.92289635015848   -0.10788172445840
C          -3.73230482247681   13.08934725703380   -1.50084393229706
S          -3.54936455451051   11.61760706400186   -2.34322873697220
C          -3.95925096066064   14.46041697581724   -1.78184068883332
C          -4.03847551563990   15.16008680518534   -0.56681529603941
C          -3.84503829154519   14.21967073010151    0.52591965242145
C          -3.84766262251805   14.49488200951719    1.86082386032200
C          -4.04414471799089   15.80138220090300    2.35745312664195
N          -4.20040489312055   16.86138842967974    2.76485378837417
C          -3.65760776962810   13.49123427299914    2.83487864415966
N          -3.50898678393294   12.67659477776682    3.62741002329322
C          -4.27593471767335   16.52476942710177   -0.74228584692042
C          -4.36290818966078   16.86587831062121   -2.07695743637208
S          -4.15514321586520   15.47988568165361   -3.13696666902605
C          -4.59116398992084   18.15462488274770   -2.63195539338892
C          -4.53969972209935   18.51558750193258   -3.94904483121207
C          -4.81134854142101   19.88448022155392   -4.17241668048592
C          -4.86297871358767   20.56522996856245   -5.40570409241750
C          -4.55459903738551   19.90306567285075   -6.65660991463786
C          -3.54889048881575   19.01911275308472   -6.92797709260092
C          -3.57303360281312   18.56528248148986   -8.26351957535489
C          -4.58618691230758   19.08389116108275   -9.01866056209546
S          -5.53907286586804   20.17029972988350   -8.07157832011718
C          -4.91331188337428   18.80916289709826  -10.44050341288426
Cl         -2.41772816558796   17.45154756424104   -8.88793223017530
C          -5.25764556145321   21.89484910995577   -5.35579274553546
C          -5.61982181621841   22.56865106847302   -4.16162719572329
C          -5.54680411618405   21.89216938232810   -2.92381469020792
C          -5.11674418762875   20.56910312535391   -2.96887049115057
S          -4.98836749147733   19.50613984298161   -1.59260498634137
C          -5.92778380349488   22.50490318068442   -1.66940191031800
C          -5.35276117263991   22.32788811764877   -0.44180340313717
C          -6.02782398227808   23.02287491034261    0.58360427040043
C          -7.12526015937469   23.71993909594584    0.16518223745997
S          -7.32939291513103   23.53456177492615   -1.54236164503759
C          -8.06486502509402   24.54413078484026    0.96528384382613
Cl         -5.50124911967572   22.97996708970653    2.22152407468131
C          -5.98333990951381   23.90997859013377   -4.41313037073698
C          -5.94379974622027   24.25921432017629   -5.73831917861917
S          -5.35650539252221   22.94305425999450   -6.73515028339049
C          -6.25062656067293   25.53813720341000   -6.27514549953483
C          -6.49858447882372   25.87312819242196   -7.56689720249308
C          -6.33189903147878   27.28633870687085   -8.01244108637732
O          -6.28526711938948   28.26821070874795   -7.30938518189263
C          -6.16364679196675   27.20340675468602   -9.47662459107400
C          -5.84604897210834   28.19412116700059  -10.36074815503665
C          -5.70402639564424   27.87714481551387  -11.73012643780971
C          -5.89284138174145   26.53068722788657  -12.15972175386161
C          -5.74168566907018   26.22212105704400  -13.52568357373968
C          -5.42080366643698   27.21646022489158  -14.40726942076449
C          -5.23272985857362   28.54598858451390  -14.00507080388392
C          -5.37497168666099   28.86320972217147  -12.68299495519895
F          -5.27616608553435   26.92300935525495  -15.71194578969811
C          -6.23102756625618   25.52576247574467  -11.22394655520307
C          -6.36795615388427   25.85830810734170   -9.90360974407010
C          -6.74669067867909   25.06079087454025   -8.74279421121949
C          -7.44863562394132   23.88576630772227   -8.77281556574434
C          -8.08919962143759   23.34985523088354   -7.63378467814976
N          -8.67996864969876   22.93472203951988   -6.74186931261840
C          -7.66398105351671   23.12873027693145   -9.94064656120812
N          -7.82540931168455   22.45971320769623  -10.85947562887699
H          -4.77467250956420   -1.99089486622031   -5.43354069894286
H          -3.26748360060963    2.13981081545417   -7.79147515935872
H          -4.26622377435017    1.32233245740294   -9.84788596669897
H          -5.51706292529817   -0.40260176553256  -11.08247308838189
H          -6.26818233286070   -2.45059888196394   -9.93852183392952
H          -5.77295928945455   -2.79033891206414   -7.54964262290625
H          -2.81750359801993    1.07892008073469   -1.61687031398209
H          -2.12992905810796    2.87321762060019    0.09659540984784
H          -2.59550673055575    8.94527885466383    1.23569498940107
H          -3.33822696041446   11.25677613839992    1.28459846055740
H          -4.37827819843892   17.24684252810394    0.04772138491516
H          -4.33472011017174   17.81290808439282   -4.73601207671604
H          -2.78937928231247   18.73406881219007   -6.22352719132397
H          -4.00205498593703   18.78370809843518  -11.03616428902156
H          -5.57979340930185   19.57376475581772  -10.83087599266805
H          -5.40432922443769   17.83996800796097  -10.53740228490442
H          -4.45868789450039   21.75874315562297   -0.26786033113418
H          -7.78174005835065   24.50667944644532    2.01407670295327
H          -9.08446326845491   24.17535125123478    0.85900708320373
H          -8.04804656483553   25.58107218649035    0.63085722219685
H          -6.29235868882288   24.60113252134128   -3.65079845559834
H          -6.20437045139639   26.36591396027682   -5.57443901874198
H          -5.70393439703031   29.20866002884327  -10.01975028868519
H          -5.88230590760079   25.21001217438696  -13.87157464264618
H          -4.98024811150381   29.28787004906400  -14.74592264469024
H          -5.23502888389373   29.88026177997660  -12.34905667688639
H          -6.36299138738902   24.51297802051614  -11.57108954424285
