135
 SCF done       -234.959335089799          0.000523529111
C           0.53449745243447    0.94978456689133   -1.44962506775049
C          -0.55887560820392    1.39681438258541   -0.75729965878792
C          -0.90554373951574    0.94486539984190    0.53195806058288
N          -1.21464844771845    0.62200481794601    1.58932961268418
C          -1.50736673651438    2.29421646890775   -1.28997636895379
N          -2.34495714570171    2.96683395455075   -1.69464380806171
C           1.39286318360740   -0.16227949883009   -1.05982947926802
C           2.07616912128481   -0.63517186303731   -2.21895933927728
C           2.93155989886099   -1.69745356295272   -2.16269354764699
C           3.15586950352159   -2.33724148620586   -0.92289041400940
C           2.48722499651847   -1.85998627943747    0.24166354239643
C           1.59927152207827   -0.76363914589918    0.15274099769915
C           2.72782352605153   -2.50195651454559    1.47357587107872
C           3.58538931884430   -3.56500781787099    1.55340813279918
C           4.24226943528077   -4.03496118933508    0.40617123350772
C           4.03122824555938   -3.43490216940348   -0.80540931746084
C           1.71483351605254    0.20414920837426   -3.37609324414027
O           2.04828501428751    0.07010457416678   -4.53079511650152
C           0.89283485100503    1.31255444191741   -2.80923552794470
C           0.70426586506443    2.44855968073239   -3.51918802808406
C           0.28436238376353    3.73925561821870   -3.03456798890349
C          -0.46450744041107    4.57679631347295   -3.87378115187958
C          -0.87602012189833    5.80345000604714   -3.41226410366566
C          -0.54229815562211    6.21636442027856   -2.10945801022705
C           0.24363183847965    5.41695256188902   -1.29080794007881
C           0.64957678026192    4.18535182955303   -1.75725422712353
C          -1.16301875360808    7.49725632257384   -1.85616931421993
C          -1.88865166865546    7.87389346993760   -2.99871756049781
C          -1.71188749169061    6.85479947799311   -4.10455622905871
C          -0.93442043257452    7.55635525217605   -5.24399620566820
C          -0.46713753792551    6.65948390460652   -6.38255866887217
C          -3.05391028395075    6.28919870344616   -4.59322466627971
C          -3.88677138012899    5.70507943040023   -3.45775338919278
C          -2.59312699007345    9.05255496066822   -3.02391820064729
C          -2.58640085788094    9.88766108157609   -1.89734434995588
C          -1.84881974384241    9.50053559564517   -0.76984208298778
C          -1.14487296981088    8.31460201007012   -0.73501113298274
C          -3.28993686089539   11.15148277243348   -1.86016542197642
C          -4.21863625984702   11.57218555465007   -2.73495358623922
C          -4.88374501646256   12.85094565598007   -2.68772331361560
C          -6.01897284714229   13.10340277595341   -3.47419825918299
N          -6.65102079739734   14.25472527653567   -3.48596736534464
C          -6.16301048592535   15.22008617438737   -2.70407513060425
N          -5.09222106136420   15.09724386037946   -1.91733028329639
C          -4.46877101429881   13.94259916189105   -1.90974647337403
C          -6.81551426500162   16.50273643372827   -2.71089353192532
C          -7.94364158726433   16.86984308619353   -3.38259702869299
C          -8.29866774552972   18.22382301260992   -3.17369429358672
C          -9.38806216305179   18.93237008015944   -3.72339511147755
C         -10.31703654008667   18.33815115336930   -4.66350160160084
C         -11.66730332268605   18.53186962946825   -4.73667018840668
C         -12.26097396334311   17.83912767852447   -5.81343558801150
C         -11.38471177345990   17.12609383611519   -6.57884728732603
S          -9.77942825176248   17.29763543504409   -5.95482449611320
C         -11.65870056017367   16.29591235837827   -7.77879662339836
Cl        -13.95388345052640   17.90005931053978   -6.12150813795410
C          -9.52731701436980   20.25865646224141   -3.32755927532438
C          -8.62308996690587   20.90352698147055   -2.44313369453145
C          -7.51070021521520   20.20601964955445   -1.92325482611104
C          -7.39514585001410   18.86785228088555   -2.28550664503749
S          -6.12520503213481   17.79110322446635   -1.77261315006912
C          -6.53436782259593   20.88294639038406   -1.09801935935290
C          -6.05549354058192   22.15674086285856   -1.23675889944459
C          -5.10609371527754   22.48686138612747   -0.24752218197393
C          -4.85071976340486   21.49024966127017    0.65053497511463
S          -5.79485857467325   20.09102881418517    0.26858707369164
C          -3.92322608502690   21.49850724036460    1.80971088816308
Cl         -4.34386705129280   24.02813401281812   -0.18968043411008
C          -8.98216051044944   22.24503024732882   -2.20106794403996
C         -10.07486099649695   22.66523734045215   -2.91441037147614
S         -10.76535696271094   21.35551176396057   -3.86536183436791
C         -10.71203311378650   23.92896923908811   -2.94478716473787
C         -10.15794115575198   25.14513489774554   -2.66631352042837
C         -10.88916476355108   26.40081438963530   -2.63496261320355
C         -12.24495855485932   26.54455352593737   -2.49818906390325
C         -12.90247733424867   27.79109361684817   -2.44390625547214
N         -13.49401915116518   28.77408446431455   -2.39974687827551
C         -13.16164559675270   25.48240802589156   -2.34810611836701
N         -13.96433712872022   24.67549521913522   -2.19563893465975
C          -9.91898078152927   27.48716767244881   -2.67252306060990
C          -8.61259837693828   26.92288450800039   -2.64241769812304
C          -8.70551036115612   25.45462852635497   -2.59847039611838
O          -7.76923094666113   24.68299908035296   -2.57768478774498
C          -7.48885244951928   27.69779971661181   -2.65263949798134
C          -7.62375234081169   29.10325600335736   -2.69586624656056
C          -8.92746980908441   29.67678216086284   -2.73785306156589
C         -10.07263443600103   28.84722763360303   -2.72603630149149
C          -9.04927948169474   31.08030906394226   -2.78722318114133
C          -7.93886119004210   31.88001558406680   -2.79117815577070
C          -6.65601970874027   31.31405399876771   -2.74746443237428
C          -6.50186378206391   29.95505628027093   -2.70077984274150
H           3.43366011015831   -2.04521550840570   -3.05332706769981
H           1.11175265549165   -0.41582808785516    1.05045308632426
H           2.21710419474298   -2.13882820961850    2.35339871295503
H           3.76215749162735   -4.05049095692876    2.50146058725465
H           4.91644525805629   -4.87441988300114    0.48743558697701
H           4.53401723294555   -3.79220602466674   -1.69226761462430
H           0.96106656330115    2.38643841377404   -4.57241365997106
H          -0.75152396497875    4.21537479980486   -4.84922323465120
H           0.52362547621470    5.74693412527421   -0.30177890121443
H           1.27929744386627    3.55894786783026   -1.14115209278959
H          -0.06124888169969    8.04530800691155   -4.80316718901959
H          -1.57878409848129    8.33962511526837   -5.64958377967899
H           0.26482381219077    5.93698601901948   -6.03247207407864
H           0.00360748471171    7.27019566548717   -7.15021124677179
H          -1.29928101775632    6.12975528337961   -6.83827025090008
H          -2.86474887499561    5.50958232437310   -5.33203433227798
H          -3.61257321787566    7.08908875833408   -5.08510426056559
H          -3.35648853574675    4.89398008625651   -2.96547896716735
H          -4.82435597576052    5.31524403991489   -3.84743695256611
H          -4.11434383854577    6.46704235762640   -2.71519583496409
H          -3.13855769072549    9.34316134778160   -3.90844356191280
H          -1.84243605046922   10.14857399036092    0.09511279768630
H          -0.58863098392458    8.03204834405023    0.14606707291474
H          -3.03324489847322   11.78711391456549   -1.02246752104069
H          -4.53946835935917   10.92587169634440   -3.54135290420731
H          -6.43031627833963   12.33405928636753   -4.11755022488261
H          -3.59493988032821   13.89069055175367   -1.27345884273420
H          -8.48890080125803   16.17554883386294   -3.99324689322706
H         -12.23436452571123   19.11279283583895   -4.03345797782331
H         -12.72880697974471   16.27102615774161   -7.96877574038920
H         -11.29933578487263   15.27821310416339   -7.63170778727662
H         -11.15445180599783   16.70638786793334   -8.65341514922194
H          -6.33407975320679   22.83169421833311   -2.02498401581373
H          -3.41813248067381   22.45945042514327    1.86814395870445
H          -3.17796184135834   20.71049845633580    1.70817060175390
H          -4.46735613099892   21.32678349396640    2.73786947991760
H          -8.48307488516656   22.86605742732690   -1.48432248490054
H         -11.74276144483128   23.90692375622587   -3.27911615476746
H          -6.50936612069786   27.24370100986283   -2.62460614194454
H         -11.04533523099828   29.31134945313347   -2.76536118141996
H         -10.03897540789575   31.51182724939208   -2.81898122801496
H          -8.04308830220958   32.95407643892167   -2.82745275660893
H          -5.79077256114293   31.96000774320904   -2.75129704863409
H          -5.51684053582830   29.51285611000741   -2.66725350960385
