110
 SCF done       -212.718221905379          0.000702349422
C           1.31107307969033    1.13966188566835    1.97263397396746
C           0.18521982617348    1.06745644608620    1.19241246290527
C          -0.04332723716817    0.05481599273441    0.23745149276921
N          -0.28224632523177   -0.74600668583666   -0.54898483792079
C          -0.91544204528195    1.93548960187735    1.31793991126447
N          -1.84128953027118    2.61025986640710    1.40049857966380
C           2.35647215699693    0.12200949915535    2.02207188136060
C           3.06622648978379    0.25863055943024    3.25087658148093
C           4.08488541913348   -0.58493183117394    3.58839677915339
C           4.45501524766192   -1.61138919198572    2.69019523190632
C           3.76377495328419   -1.73876455257971    1.45055146871632
C           2.70610754590619   -0.85603172719618    1.13119937757506
C           4.15158087547687   -2.75891693934670    0.55863563396814
C           5.17023752547360   -3.61594353183539    0.87548493286645
C           5.84861968676212   -3.49141264439704    2.09700650332806
C           5.49841866932948   -2.51076747422831    2.98510081643144
C           2.53344915277854    1.41352876888215    3.99252932622788
O           2.84522927362052    1.80900979172848    5.09240168976923
C           1.55244985642215    2.05472299675583    3.06721720917217
C           1.14849737125042    3.32777875610390    3.33439987480065
C           0.56641288866570    4.27592895268829    2.46660755728813
C           0.55068938054684    4.30174707479972    1.07930777249127
C          -0.09127404362192    5.42704527813129    0.58024703334768
C          -0.56968719781485    6.28204843625278    1.59605502190529
S          -0.20869103388220    5.70094996676657    3.15411272364531
C          -1.21675406918019    7.37928792901965    0.98356767484946
C          -1.15644356068623    7.22208125969181   -0.41284005961229
C          -0.45351321207024    5.98200227228374   -0.71004623379398
C          -0.20741235378264    5.43708432161035   -1.93629156984311
C          -0.61706150410981    6.06357554401309   -3.13140983548987
N          -0.94463675071522    6.58123784099668   -4.10058144024785
C           0.47827511089449    4.21150659735026   -2.07202094728227
N           1.04600586666641    3.22011945037746   -2.16932735060089
C          -1.76417206975980    8.26500433234911   -1.10628854259131
C          -2.28499059393704    9.22563419830812   -0.25428720285054
S          -2.02296978901113    8.81471383295351    1.43900335998190
C          -2.96086362639295   10.42877175539989   -0.60199884778131
C          -3.38332640692604   11.33169701107717    0.34673809526250
C          -4.03965992464830   12.52874038549332    0.08015091652594
C          -4.23273109814830   12.97955963863869   -1.30524943262483
C          -3.91383772226566   12.24381351408982   -2.39271844592019
S          -3.21762627153206   10.67819014466663   -2.32379649280930
C          -4.78275468932382   14.28699484090074   -1.20625756630485
C          -4.93036872821496   14.63234913402780    0.13810053499475
C          -5.47388281998141   15.92569388351164    0.29932712232684
C          -5.71556796638979   16.51600886061018   -0.90027376000855
S          -5.30279433280970   15.53422454375113   -2.26610879794198
C          -4.50132498634445   13.53163338536643    0.96031838814274
C          -4.57664405876514   13.54442817661227    2.37196412050467
C          -4.54963283240792   12.45774624872115    3.19217133509595
C          -4.58081732995700   12.50925181744200    4.60409809775648
C          -4.58176378340588   13.60941740314563    5.45461037977777
C          -4.59391886778748   13.23801254108320    6.79305026063220
C          -4.60063999517871   11.84128332437946    6.98001592054755
S          -4.59373045996322   10.99278392563095    5.49581364298157
C          -4.60487500726446   11.56932134426006    8.36285105500948
C          -4.60035955181028   12.79975670430145    9.06665685476778
C          -4.58782471188100   13.88324619379996    8.10091184683479
C          -4.56354423075722   15.22525463047265    8.34258697137382
C          -4.52737507559230   15.78635878047800    9.63785780916889
N          -4.48554574304825   16.28530952373653   10.66875275459710
C          -4.56334757856227   16.16569776553879    7.29071614079650
N          -4.56399527877614   16.92841118396516    6.43400667898243
C          -4.61133821769049   12.63977693072601   10.44446534403382
C          -4.62239880977450   11.30119148973540   10.82032368135422
S          -4.61361576697070   10.22851481216385    9.40469232273291
C          -4.61268262049827   10.64612768980437   12.06504015880256
C          -4.67147107961236   11.12141899402403   13.34849810244284
C          -4.60168669607521   10.26885791732254   14.52488031298912
C          -4.33148006642088    8.92369438927081   14.56545410083575
C          -4.27804242088249    8.16488377448023   15.75386398013443
N          -4.21967445165537    7.48071634605893   16.67431601509925
C          -4.04703557987054    8.08827089500342   13.46537422854456
N          -3.79267656188083    7.33337291915709   12.63678635986149
C          -4.82711690249529   11.10506036246524   15.69887347808667
C          -4.98826558014163   12.45116658316017   15.26878755716428
C          -4.88643547154656   12.51688846948497   13.80186552997797
O          -4.98634894218868   13.52355008361206   13.13071939648809
C          -5.20480018888041   13.47354932579924   16.14639860462022
C          -5.27386902893355   13.18928026865028   17.52843069753459
C          -5.12000119709507   11.84341995157617   17.96940973066355
C          -4.89576296621824   10.80668256068519   17.03432728669177
C          -5.19379347279421   11.56943503343518   19.35031247177677
C          -5.40763572795731   12.57512969038889   20.25322539491332
C          -5.55798380722420   13.90010722993750   19.81762114647514
C          -5.49248762882068   14.20067964421789   18.48405344492937
H           4.60452778593647   -0.46999365061191    4.52802642166418
H           2.20709867450275   -0.96602065116701    0.18106700992893
H           3.62409708152952   -2.85254465400721   -0.37917379761916
H           5.45873694778319   -4.39534412593425    0.18624486343458
H           6.65039712272937   -4.17579700347824    2.33074831574996
H           6.01752909862128   -2.40969187048828    3.92702101963835
H           1.37542637173201    3.67428221467699    4.33843782162677
H           1.02920440916761    3.55344726653635    0.47438733390066
H          -1.82765425227126    8.33776211813820   -2.17712655684869
H          -3.14242407347762   11.09006719463114    1.37218131255830
H          -4.08349108446472   12.59356798223636   -3.39881419134367
H          -5.67390789372417   16.39907725807107    1.24318440811895
H          -6.12173985656463   17.49189958574663   -1.08133063320559
H          -4.70986068685811   14.52190215021958    2.81621907196810
H          -4.53812216436951   11.46453371457302    2.76873037626864
H          -4.57001145403628   14.62349711432530    5.10143799953078
H          -4.61880592002551   13.43691270327249   11.16681169858018
H          -4.55242004983579    9.56862421272853   11.96535199244324
H          -5.32040535728387   14.48587992160473   15.78861324140307
H          -4.78652519475396    9.79971922737658   17.40364071288910
H          -5.07646803755010   10.54781570677006   19.68105305810230
H          -5.46179562573957   12.35496148393863   21.30892164600557
H          -5.72593250195347   14.68131412206534   20.54391577321389
H          -5.60742613748291   15.21883908036171   18.14199932149212
