146
 SCF done       -274.947145827604          0.000550861183
C           6.11530458514795    5.22312798650136   -2.96392895815102
C           6.09018053042726    5.05427305639856   -4.32460431280819
C           7.05030209096538    4.31375442993109   -5.04596001508965
N           7.79207079659462    3.72867324962748   -5.69883740638724
C           5.12973560900108    5.57976582384032   -5.21409760105762
N           4.39988932054214    5.95779806337378   -6.01698333666277
C           7.12646821640258    4.67179544368897   -2.06752871290591
C           6.82758353112030    5.08267594450635   -0.73710645641094
C           7.59917296150840    4.71422338543933    0.32656591679279
C           8.73049248876836    3.89751710040469    0.10510464097223
C           9.03906174791365    3.48221038077966   -1.22224034694658
C           8.22067058184000    3.88225421412407   -2.30388209042549
C          10.16967736551631    2.66699230048588   -1.43231849553443
C          10.95748793334912    2.27827299623501   -0.38308895275269
C          10.65179753603848    2.68685560447297    0.92353860999183
C           9.56221207883981    3.47990927477825    1.16234114063498
C           5.61348720995242    5.91219069736315   -0.74725525216034
O           5.09072151369130    6.43792985164897    0.21730127358480
C           5.17114551850817    5.97221743578973   -2.15252185411810
C           4.05078956750165    6.60348484667968   -2.61438780775809
C           3.06729158046399    7.34441612753780   -1.92710836940908
C           1.98577314801548    7.88968854250143   -2.59354104557506
C           1.10623359471130    8.61322004052054   -1.77637209052020
C          -0.08525563529346    9.28782381889505   -2.15088391142924
C          -0.66654015208491    9.17075178568328   -3.46863090871289
C          -1.48292726856805   10.05100574981133   -4.12933080613785
C          -1.93184333270769    9.56152003830821   -5.37085403519899
C          -1.48633781571039    8.30816094176189   -5.68140039417127
S          -0.48540527751917    7.71135992045972   -4.41066517293303
C          -1.72665135642095    7.51801461305025   -6.91388043671975
Cl         -2.97014339367137   10.47241467401177   -6.40088846831947
C          -0.68190387304945   10.04387866693005   -1.14864339871610
C          -0.23342202191047   10.07513414695110    0.19894631094054
C           0.89503118442168    9.32458337424234    0.58343636343571
C           1.56673200293199    8.64452053343794   -0.43207595058734
S           3.02821554176130    7.72437406752288   -0.21984495813616
C           1.33794744942385    9.24125646559518    1.95953376091568
C           2.61532025012945    9.18141249653220    2.43902517049683
C           2.66628425835594    9.03715918894042    3.84204036683781
C           1.44736978183198    8.97167761037789    4.45156651213890
S           0.19088184772101    9.10221755603014    3.26915573999003
C           1.13323524672049    8.81152027598981    5.89366485551756
Cl          4.15514686699984    8.95339135568978    4.70067673096527
C          -1.00743106419228   10.95184713021489    0.99927695071013
C          -2.00951036119597   11.58120944787695    0.31921935832170
S          -2.07076673050992   11.06871614000297   -1.35935182482910
C          -2.86835490144743   12.64645444062220    0.73143939429604
C          -3.54782011395062   13.37919032402836   -0.20372995914942
C          -4.25859103990228   14.54963630213984    0.04668027991602
C          -4.57839851163059   14.95527514198211    1.42047493151220
C          -4.04784958560462   14.35217526295065    2.50739116836620
S          -2.91930806407565   13.05202435125832    2.44191240075821
C          -5.45891080702116   16.06330123581515    1.27295193764282
C          -5.62920266383207   16.35777186884388   -0.08502278505591
C          -6.46507591495380   17.47763570783599   -0.28622094660665
C          -6.90287158830803   17.99198585881078    0.89249498559321
S          -6.31651014561608   17.15240103750971    2.28944352268126
C          -4.84778154705236   15.43801784833973   -0.86447495259685
C          -4.63182256982066   15.43321873883286   -2.27402270721525
C          -3.49352345768604   14.92688896558475   -2.80666706835413
C          -3.18810410616617   14.66851423642318   -4.16832058465951
C          -2.11022549837252   13.92315983925493   -4.57207938310416
C          -2.02375826536747   13.72075371917381   -5.96475872887459
C          -1.06321295918007   12.98139995697267   -6.69159131727735
C           0.00625571357686   12.23430601098503   -6.06002448356088
C           0.57388906951862   11.06817387611289   -6.49576834070340
C           1.59747549551998   10.59478485695153   -5.64829283759952
C           1.84285645945470   11.38158670083655   -4.56198465383391
S           0.77808465301821   12.74389072700061   -4.57724785994870
C           2.83852056777064   11.20029740373232   -3.47590486067690
Cl          2.45875335305985    9.13868307946465   -5.97962849465630
C          -1.21255192132106   12.97111484235411   -8.07968992205551
C          -2.25926535187621   13.65994532649401   -8.75032906151210
C          -3.24173862846927   14.37058234408216   -8.01845730910807
C          -3.09968103514649   14.36138343268507   -6.64051742723583
S          -4.17204899211293   15.16803115667710   -5.52210265161415
C          -4.32589359581413   15.08770848231307   -8.65589646325325
C          -5.62336734331405   15.18596162835592   -8.23937483382032
C          -6.40234188634325   16.01825179259988   -9.07076915940515
C          -5.72135990483549   16.57480662367242  -10.11432197870479
S          -4.07197823578244   16.05360632683983  -10.08625141218121
C          -6.21832529104600   17.48872581303967  -11.17289746083761
Cl         -8.07543645883957   16.30067122661047   -8.77588618312151
C          -2.17455738156609   13.49613785632920  -10.13975220760030
C          -1.09684998766052   12.73809248522318  -10.55897476975376
S          -0.15171853364711   12.16865634552767   -9.20254959499543
C          -0.85353405917616   12.49707797202083  -11.92653714485435
C           0.13520361736923   11.78177117052953  -12.54233884968884
C           0.29573475523877   11.62613053767904  -13.97770234250956
C          -0.48484721990782   12.17072820549178  -14.96578185771493
C          -0.26396668516067   11.97443870263306  -16.34519460098405
N          -0.14588291666767   11.85743209498866  -17.48144416640450
C          -1.61030224955655   12.99904075833744  -14.77696456946411
N          -2.53545463905344   13.67854032239834  -14.72005838317693
C           1.46169552161591   10.77753214375488  -14.20172340111772
C           2.01031685055975   10.41502677923367  -12.93847518146322
C           1.20791651551737   11.02662160183557  -11.86841063010598
O           1.39747936892575   10.91649749497667  -10.67193893491718
C           3.11410050611330    9.61988618401701  -12.82819022853224
C           3.73649466533162    9.14091508092210  -14.00273466901849
C           3.19621495627347    9.49888389029034  -15.27136336717549
C           2.04999179367277   10.32308085775242  -15.35235152152181
C           3.82503723931352    9.01691336797123  -16.43723507413582
C           4.93440155137135    8.21981471118757  -16.35582104700798
C           5.46513485836407    7.86770045826214  -15.10603090278385
C           4.87885189737905    8.31831230920188  -13.95427388153177
H           7.34799261608167    5.04052866412091    1.32492875165419
H           8.48252215507426    3.54829421992732   -3.29509172462279
H          10.40115460863636    2.35481595690032   -2.44016402005922
H          11.82100467300426    1.65316183395263   -0.55450508339494
H          11.28366480487400    2.37008344213665    1.73981855284629
H           9.32158430883124    3.79799929737685    2.16626197189961
H           3.85207493575002    6.53685767778240   -3.67754092423307
H           1.87380371245810    7.78281056875618   -3.65632836428821
H          -1.72966652867997   11.03685636637085   -3.78607801774643
H          -1.81619523673656    6.45905298601947   -6.68194162610519
H          -0.89468113030963    7.64110353545423   -7.60912515859678
H          -2.63601233741834    7.86143422379177   -7.40219020413124
H           3.49638553120305    9.26485788866572    1.83137834479160
H           2.04978920901727    8.87096889625337    6.47535593764064
H           0.66175591633920    7.84620618885930    6.07886688870034
H           0.44707627559005    9.58894802086822    6.22665951629954
H          -0.80070061074653   11.15439152657908    2.03406111853895
H          -3.51241743568547   13.01700237658006   -1.22128417345760
H          -4.26340327427580   14.67150150153318    3.51484357570074
H          -6.73126011216834   17.87988575661080   -1.24672901330123
H          -7.54940630409582   18.83446942648686    1.04251818220391
H          -5.39780388134055   15.84889859275003   -2.91552427757514
H          -2.69212510481235   14.64737776891769   -2.13629700928008
H          -1.41277272465282   13.52368723884065   -3.86010545236460
H           0.26199394950078   10.53023652144973   -7.37021350238348
H           3.37325563858585   10.26526728526608   -3.62328348238864
H           2.34767256599663   11.17805669492909   -2.50302410683467
H           3.55554293304919   12.02123038910710   -3.47148868664991
H          -6.02879145429365   14.65765794192672   -7.39679716433378
H          -7.27629456944876   17.68630118324512  -11.01928205931191
H          -6.07934409056610   17.04469314674002  -12.15814050800217
H          -5.67455943019154   18.43280051289215  -11.15203141770563
H          -2.87867102897244   13.90919573928181  -10.83904120529305
H          -1.58323010335770   12.97630396316446  -12.56805408031537
H           3.50812078915006    9.36010969022566  -11.85685999587212
H           1.66726836048813   10.57326737095520  -16.32877509556674
H           3.41236676082580    9.29059741926806  -17.39726348763772
H           5.40901881625807    7.85603062119216  -17.25487031372306
H           6.34077703426599    7.23757119664379  -15.06016628587976
H           5.28273875674904    8.05009175543674  -12.98903419865821
