162
 SCF done       -309.783183159601          0.000345251500
C           3.04634576355322    2.08622053659002   -2.76177643873031
C           3.31405321971494    1.31226490847152   -1.66276667912003
C           4.03003770706399    0.09661768953547   -1.71126974364906
N           4.59975624690268   -0.89938944585114   -1.67160344688021
C           2.96687128057568    1.59636973880863   -0.32434341476316
N           2.74888562096177    1.74188549269728    0.79427246942771
C           3.49985300011431    1.78974941734274   -4.11540152749927
C           3.16097751864053    2.88783819359186   -4.95312022078526
C           3.47240747485063    2.90854792111576   -6.28207526630578
C           4.14380533963630    1.80287705612659   -6.84905839137633
C           4.47677766426724    0.69291771954782   -6.02030958324639
C           4.14620512078158    0.70419908367635   -4.64585211434204
C           5.14065864904920   -0.40924882519220   -6.59663362451138
C           5.46260788971975   -0.41558345816344   -7.92646375070768
C           5.13620842893879    0.67903508242880   -8.74103266770756
C           4.49089186593239    1.76453370319544   -8.21380616478347
C           2.45786468953746    3.91441602100105   -4.16605007912837
O           2.08282843120737    4.98860215805973   -4.59031266964568
C           2.32644783945740    3.35412345619584   -2.79685700621385
C           1.61321280777336    3.83459518146806   -1.73534244324193
C           0.83859015431162    5.00561505630425   -1.57003364775669
C           0.57714062751513    6.07214770404417   -2.39446220560619
C          -0.27218820218898    7.03892167947930   -1.82320452380294
C          -0.70677436548754    8.25423828420985   -2.40105124703933
C          -0.39655410503891    8.62129777587370   -3.76539335801609
C          -0.12043261475407    9.86766299915688   -4.25669219437719
C           0.07387147421466    9.86941051803638   -5.65275047669497
C          -0.06539422327437    8.64558796776559   -6.24407527454685
S          -0.43340936615582    7.44933350275552   -5.05432276661889
C           0.05842431797988    8.28701973419334   -7.67917600695928
Cl          0.45125774172087   11.30371281628328   -6.52708462459083
C          -1.48506215098469    9.07639800995312   -1.59525486409319
C          -1.86685454292987    8.73811112588302   -0.27181913209108
C          -1.42760153037271    7.53051374677058    0.30850489798664
C          -0.64941243957836    6.70361680678125   -0.49378147165312
S           0.03163337792369    5.18332995914003   -0.01201864589279
C          -1.77124798107819    7.19144439873268    1.67447295392404
C          -1.80119837911049    8.01822950594961    2.76142447491973
C          -2.19671238153373    7.35218484401416    3.94128494924650
C          -2.47147472968643    6.02581831009620    3.77558144080763
S          -2.23253937706804    5.57202717192871    2.12215175439667
C          -2.90551413622840    5.03037350375966    4.78742089927496
Cl         -2.32402762854002    8.16702027843712    5.45408218708346
C          -2.73753894686291    9.70191533130970    0.28767765677812
C          -3.00129795813412   10.75292942729613   -0.54474790179424
S          -2.18386902924732   10.59707257791568   -2.08138434626051
C          -3.82031462189075   11.88894603820326   -0.26956479687635
C          -4.44806327178164   12.19324889690701    0.90434937826226
C          -5.18086917960456   13.40321116863183    0.85973364974593
C          -5.95009533336789   13.98614492559274    1.88768597339531
C          -6.13316291200191   13.30685126595318    3.15435530986872
C          -6.36307974170021   11.97763183980122    3.36757302969104
C          -6.46073703251039   11.65421042564395    4.73822001509917
C          -6.30965665140380   12.71701578420732    5.58048054177441
S          -6.04608697802788   14.16506404860818    4.66824020699642
C          -6.33583581993474   12.73856053140274    7.06472486520761
Cl         -6.74119806733209   10.04410166537703    5.28367798530723
C          -6.51396856853559   15.22541598789565    1.61151249108490
C          -6.38766369978201   15.87506601085069    0.35740175645111
C          -5.65765983344109   15.27190778970438   -0.68650151063164
C          -5.05769017429818   14.05028629675336   -0.39446621599208
S          -4.09528069233627   13.10503390759859   -1.49577823506452
C          -5.53334955625451   15.87105039987633   -1.99946967401736
C          -4.44478399606313   15.86360026344648   -2.82479880922553
C          -4.68851036199939   16.50445057282706   -4.05842686292318
C          -5.95412818802875   16.99402001961390   -4.20180720664592
S          -6.87743842244876   16.66796308066155   -2.77526171096437
C          -6.54930263381443   17.72050514635207   -5.35122556749498
Cl         -3.47591147995840   16.64564106174632   -5.27260756959944
C          -7.04166020896374   17.12974822725367    0.35245931430672
C          -7.66912507979171   17.42755832132093    1.52619284728842
S          -7.48034905666554   16.16127781487118    2.71906812915504
C          -8.39808277234631   18.61182460315139    1.83217921938921
C          -9.01387368695703   18.94079962567039    3.00370327211750
C          -9.64101911419202   20.20993232202720    2.98282481732977
C         -10.37103926832124   20.83645755710169    4.01132527253382
C         -10.66255113221837   20.18200307842729    5.27048161829528
C         -10.73103744007003   20.73906871747626    6.51579584109805
C         -11.11742071003072   19.81317056735004    7.50813797168945
C         -11.36062023533528   18.55288158412141    7.04513395494674
S         -11.09566163686692   18.49219943763391    5.33668031003711
C         -11.79719157013298   17.35093247247557    7.79941860644970
Cl        -11.26631967968483   20.25315543544841    9.16476261056915
C         -10.84110835397440   22.12341837193374    3.75133694746096
C         -10.65637931725231   22.77200137288061    2.50116656978304
C          -9.96155240058880   22.12639473597293    1.44997159429178
C          -9.45248048298144   20.86774164258005    1.73791132244360
S          -8.55425216911152   19.86958207651004    0.62592562345390
C          -9.80272889206715   22.71795991791525    0.13918480179207
C          -8.72473240355984   22.63101356017790   -0.69680359274019
C          -8.93838337409785   23.27555062562262   -1.93301785998395
C         -10.16957970576887   23.84960038405394   -2.06833907704245
S         -11.09639927773685   23.60139759542239   -0.62929739988693
C         -10.72841329576458   24.59815677445476   -3.22150713408318
Cl         -7.73360904513856   23.32051088253557   -3.16235417663304
C         -11.21985321187812   24.05670111035876    2.50685702341197
C         -11.84220879451364   24.39863762735512    3.69272440370474
S         -11.74024774643212   23.10766142919574    4.86893341394185
C         -12.44689924731247   25.66226699052706    3.86548323195547
C         -13.07776662339279   26.20585195007526    4.94754851585675
C         -13.64853020184395   27.54164913628632    5.01086029141884
C         -13.71189524668122   28.46624489585124    4.00030498432686
C         -14.28752193067040   29.74734606426119    4.13734974933390
N         -14.73851012190923   30.80249604363382    4.17678679313034
C         -13.23214797502913   28.29592421065256    2.68490261850824
N         -12.87477876029877   28.24687486153214    1.59385391207978
C         -14.16555818741523   27.73620830699603    6.36135054842420
C         -13.94905114590136   26.54301825899491    7.10823443041697
C         -13.27393829581024   25.55297120538827    6.25632899942573
O         -12.94542837727101   24.42735524048875    6.57851002813569
C         -14.33397471224266   26.42363119656688    8.41228150823537
C         -14.96236214972589   27.51836723128804    9.04666226088026
C         -15.17684077420589   28.71915905270384    8.31044801976264
C         -14.77084579820287   28.81018840781078    6.95909422311773
C         -15.79821819618937   29.80822939457250    8.95471130826300
C         -16.19088714137836   29.71685140687576   10.26240126832337
C         -15.98167525567812   28.53300224862774   10.98532443977635
C         -15.38043148467369   27.45703613497696   10.39036123985523
H           3.20720547731700    3.75855593454869   -6.89323701348575
H           4.41087195313357   -0.15357028233542   -4.04883578124813
H           5.39162822802425   -1.24872330179707   -5.96497273876216
H           5.97153195042506   -1.26426717516661   -8.35831179114492
H           5.39823399307324    0.65739020346280   -9.78832772899920
H           4.23659903432313    2.61010143444335   -8.83621504588142
H           1.60657934787059    3.20984089830422   -0.84959923919312
H           1.00611473575923    6.14888374009501   -3.37562519092033
H          -0.01574734677373   10.74848994990688   -3.65108086387244
H          -0.91807736388067    8.04596330849666   -8.10036886166098
H           0.70024809563355    7.41593614067752   -7.79843966287927
H           0.47977570715899    9.12292241363567   -8.23226604923617
H          -1.50776366638638    9.05154938119619    2.74155308097522
H          -3.03485479025395    5.51769243869689    5.75060973073948
H          -2.16229023510954    4.23984727982247    4.88785046199816
H          -3.84740320989292    4.56879239637542    4.49341702300439
H          -3.17948870784813    9.60195168197665    1.26052645839376
H          -4.36522830809082   11.58791798735741    1.78689545648832
H          -6.50528269153893   11.25752362763806    2.58307465759384
H          -6.71622554401037   11.79137827645090    7.43946063389067
H          -6.96843415056429   13.54777190700837    7.42487718594373
H          -5.33286279698444   12.89307026686870    7.46362289179141
H          -3.48726591695085   15.45527268725226   -2.56093042066314
H          -5.82133246446651   17.79103598191961   -6.15548261212488
H          -6.84820981566019   18.72600740740715   -5.05561600687104
H          -7.43483332685232   17.20220008368183   -5.71733232328725
H          -7.04331429611449   17.80723059918415   -0.48139462706749
H          -8.99771269689380   18.28855503423972    3.85743887048421
H         -10.48987368966603   21.76150164565045    6.73732839302379
H         -11.71839600426556   17.54073948469920    8.86709144809711
H         -11.18257320389420   16.49048749096447    7.54044605775932
H         -12.83347602666013   17.10651662483024    7.56399869592874
H          -7.79363776430905   22.16364052489666   -0.43673390001833
H          -9.97153385029318   24.69738209533897   -3.99557532353609
H         -11.05412984733640   25.59052684917668   -2.91233736153149
H         -11.59125997193960   24.07708357305692   -3.63598386676732
H         -11.16993197619669   24.74014114971459    1.67865984629660
H         -12.37347046641286   26.28073574005269    2.97898032884587
H         -14.15862921994106   25.50564731775222    8.95340087414904
H         -14.94911823147037   29.73368601805540    6.43195141043838
H         -15.95779627705575   30.71741640967700    8.39378071175249
H         -16.66525500705288   30.55694835988380   10.74712470744129
H         -16.29884830421491   28.47794944055536   12.01597964373289
H         -15.21604262523985   26.54292508030002   10.94194041798654
