130
 SCF done       -240.111514324064          0.000854781553
C          -3.27752895631407    0.49872105080098   -0.78430283655998
C          -4.40573785041060    1.16725629015321   -1.19728926571567
C          -5.18809247440560    0.78360244402095   -2.30239678340376
N          -5.84347107967774    0.53725208621507   -3.21318010175955
C          -4.96081735691481    2.25951627324801   -0.50581376004658
N          -5.47486637885493    3.12437325825535    0.04835474825207
C          -2.85764642595054   -0.81038396918041   -1.27989350642320
C          -1.97668879795894   -1.39220159889152   -0.32253033851361
C          -1.45967564101746   -2.64322340143923   -0.49078140426671
C          -1.79701117318291   -3.37892881969791   -1.65036511609970
C          -2.66222606202767   -2.79579030802185   -2.61960062387009
C          -3.18883569020284   -1.49873601897055   -2.41456483233701
C          -2.98753642681085   -3.53731892236289   -3.77297181973416
C          -2.48743627630178   -4.79733192291832   -3.96012610041013
C          -1.63690572727931   -5.37164249444751   -3.00435691579173
C          -1.29886021514667   -4.67714302501829   -1.87440663376765
C          -1.75954611303402   -0.43317469900076    0.77729721761213
O          -1.10622301507031   -0.59258180470801    1.78674685701868
C          -2.47119915978545    0.80413972189537    0.36944221042805
C          -2.22045794209350    1.96286513966130    1.05489214956531
C          -2.41358785662986    3.30183536338472    0.67709661376650
N          -2.29743983574613    4.31583543143391    1.61438356293516
C          -2.49312385964219    5.50292816419730    0.99559074442460
C          -2.58728469240595    6.87656786149584    1.19720427461495
C          -2.82499933612791    7.43706632029606   -0.06262500444332
N          -2.85173417582283    6.43782654672448   -1.01323964350322
C          -2.67515638311863    5.24322581153118   -0.39117713767666
C          -2.62978005481519    3.87450319960051   -0.59069709471437
C          -3.05320204800190    8.78786302189651   -0.44002241832184
C          -3.14992008620908    9.83129105994392    0.41531695442275
C          -3.45344418526436   11.16573243827671    0.01940015738750
C          -3.56558266915389   11.69899392706922   -1.23524220759918
C          -3.96984860668565   13.05327258758485   -1.25311304679043
C          -4.16554086206607   13.88829286993641   -2.37229451162559
C          -3.98893315176848   13.43735060240931   -3.73776892171735
C          -3.47853418932096   14.14818102567884   -4.78622511728243
C          -3.50816176579181   13.43184595808320   -6.00230647498970
C          -4.04625212843881   12.18216259871548   -5.91054040936016
S          -4.52211076083956   11.86601361193012   -4.27575754096476
C          -4.23334311521403   11.16572124126433   -6.97640630486068
Cl         -2.91138031731416   14.09879465186837   -7.47359656420645
C          -4.56992245504520   15.19303517363360   -2.10784402187254
C          -4.77131064929082   15.70260754382880   -0.80130067184154
C          -4.53441463921038   14.88030759572241    0.31937390034504
C          -4.15480420343024   13.56821587027403    0.05590290689693
S          -3.81526362204582   12.35455990633329    1.25612644261750
C          -4.66782142659079   15.36238090658116    1.67905530456943
C          -5.15641835987092   14.69641780651419    2.76612513484456
C          -5.07514420033636   15.45470928879640    3.95419456691291
C          -4.52026566547837   16.69136390135091    3.80058212117508
S          -4.09141042285907   16.94266062439943    2.14224495718215
C          -4.27331758436249   17.73709478078129    4.82509450243356
Cl         -5.63555018549343   14.85143940828364    5.46669255949335
C          -5.28430390594808   17.02224618350096   -0.82228992838907
C          -5.46707966753959   17.51957069213040   -2.08064090657178
S          -4.98395635737042   16.37749569926659   -3.31471049975717
C          -6.01029386954825   18.78474169995654   -2.45357272907477
C          -6.45175281528055   19.79049140921696   -1.64276243980096
C          -6.98604591696332   20.89553238710341   -2.34422166724488
C          -6.94108648048395   20.72479728829595   -3.75262646005219
S          -6.21969263730787   19.17454143258666   -4.14301959017039
C          -7.43579139578734   21.69083912594012   -4.61347160780211
O          -7.46215401184323   21.69273169024208   -5.96210064285598
C          -6.93087913478946   20.61325752534488   -6.69314856885038
C          -8.00495608326575   22.83831298998778   -4.00928120012262
C          -8.04647553477650   23.00979432414694   -2.59586342356690
C          -7.53038220557882   22.05038798936004   -1.74112402300734
O          -7.47981531287086   22.05471877525299   -0.38434766138725
C          -7.96165726458961   23.16288858078231    0.34005400703112
S          -8.82650899740828   24.52660482826373   -2.21090867506337
C          -9.09781575000049   24.89468364465812   -3.91489840089144
C          -8.59134350611037   23.90170174137614   -4.71694525313613
C          -9.76738440878909   26.10816276434113   -4.18041382764446
C         -10.21965809351992   26.66278105607524   -5.34632574008582
C         -10.92014671478174   27.93782658228762   -5.40333851651981
C         -11.03327166260762   28.87013820884758   -4.40348881389029
C         -11.72533479757759   30.09198993022472   -4.54077438329638
N         -12.27066361929912   31.10202721176066   -4.57673188587475
C         -10.46619767891815   28.79328803010247   -3.11389543434119
N         -10.03592093905226   28.83436816857020   -2.04902243762138
C         -11.45209085664935   28.09828883081110   -6.75195519926986
C         -11.01263753233199   26.99970985071424   -7.54078484905680
C         -10.20199123256045   26.08873980896341   -6.71377580247457
O          -9.65155967378577   25.08202196576877   -7.11094993404004
C         -11.34190361804665   26.87614899894025   -8.85938813297418
C         -12.15188804970967   27.86445750671908   -9.46172185942288
C         -12.60635682372910   28.96300552001841   -8.67701315074177
C         -12.24301119538313   29.06538161446450   -7.31429598247689
C         -13.41999212629133   29.94039146510838   -9.28545274197377
C         -13.76704949653842   29.84018450759375  -10.60522114041889
C         -13.31707942043564   28.75885258721899  -11.37733668620685
C         -12.52669354982005   27.79201779700703  -10.81759002056370
H          -0.80250579922016   -3.07049014106673    0.25210171281001
H          -3.83791375405784   -1.07941602308316   -3.16753790543481
H          -3.64613174044955   -3.09194400817029   -4.50437774565339
H          -2.74603204674260   -5.35880012635525   -4.84555757996774
H          -1.25111393804424   -6.36702747204538   -3.16719353756606
H          -0.64418193091756   -5.11463209863743   -1.13468527107949
H          -1.71909290656272    1.81099410420646    2.00745473767408
H          -2.20612530423255    4.15929234952002    2.60374612920986
H          -2.50312394382090    7.41494557979526    2.11866126441262
H          -3.06103082211895    6.58238070497630   -1.98604448237129
H          -2.69760219714598    3.33916947463031   -1.51639671602878
H          -3.19272439895606    8.96162957670405   -1.49884969633628
H          -3.03891331254083    9.66486606087488    1.47667621733334
H          -3.35300705628966   11.13870810518414   -2.12533148316443
H          -3.06060800439445   15.13373564613560   -4.70075585900247
H          -3.95622192526152   11.59076402334347   -7.93781567659107
H          -5.27130549278458   10.83819339437087   -7.01752717876796
H          -3.61228669496912   10.29004568279178   -6.78735221283228
H          -5.59326743763219   13.71618840380657    2.72832041149404
H          -4.68962714564579   17.42033890793681    5.77808232948193
H          -4.73266667116675   18.67992674784418    4.53113186454553
H          -3.20405679261068   17.90933875674711    4.94791452263055
H          -5.53831764124017   17.57570014912382    0.06146278948418
H          -6.41353145424233   19.75899233282293   -0.57052109761315
H          -7.46444157797867   19.68196051109483   -6.48586765303543
H          -5.86506268845720   20.47459849526718   -6.49366890214506
H          -7.06981093874985   20.88259658908550   -7.73913951358852
H          -7.42668814656905   24.07979133551446    0.08084367571796
H          -7.77658430698772   22.92261471949187    1.38616464332112
H          -9.03388728010195   23.31061106440771    0.18907029039645
H          -8.64340607399205   23.92451230255940   -5.78984412206901
H          -9.97470997050838   26.67235232693333   -3.27815023366644
H         -10.99018252965130   26.03255331245204   -9.43476426743576
H         -12.60724011400103   29.90828749250722   -6.74925147569949
H         -13.76272801569137   30.77204818072771   -8.68732965151612
H         -14.39027331903657   30.59441069423595  -11.06201186358852
H         -13.60025645167489   28.69552379093428  -12.41747950075007
H         -12.17755157935795   26.95641225910937  -11.40669150977230
