134
 SCF done       -242.335840114173          0.000809154017
C           4.13843938889045    2.44623083632318   -0.43896949013227
C           3.77922967507629    3.04102497871628    0.74359078633026
C           4.58402466726140    3.03369406575710    1.90196064421165
N           5.19221276641269    3.05203483397169    2.87490870709865
C           2.52841974792550    3.64273876922300    0.97684462293807
N           1.51363920066285    4.12213886796766    1.22115479087796
C           5.32208628696321    1.61174776630953   -0.62189152236633
C           5.11619266410166    0.77345410356959   -1.75634825619082
C           6.04596956530722   -0.14697366542607   -2.14565420836289
C           7.24929502569573   -0.26265478532655   -1.41340000132863
C           7.47044230060654    0.58908028744093   -0.29261127539775
C           6.48617943137614    1.52846562583175    0.09258451937098
C           8.67928549157745    0.47057769990826    0.42248710278103
C           9.62390630715621   -0.44800201493257    0.05325311153123
C           9.40452167536915   -1.28782681824896   -1.04874340222239
C           8.24275998322267   -1.19701119854282   -1.76642449863041
C           3.81926907107038    1.10158126617978   -2.37223171206862
O           3.28072450543440    0.56948133640044   -3.31631572936228
C           3.31492217485996    2.28641543817309   -1.61850713542323
C           2.29977963794991    3.01740950737464   -2.15790884325132
C           1.91073355274108    4.34080291085128   -1.86068062488525
C           2.63497404157526    5.34367321181378   -1.23259290573772
C           1.91699835179062    6.52745842064623   -1.13249374430860
C           0.62766853798005    6.43832364893187   -1.69412951178803
S           0.32039117043887    4.90680181918860   -2.36543175039891
C          -0.02924118597537    7.68055456123508   -1.49872572783542
C           0.83832648207874    8.54596614965229   -0.81486714142018
C           2.08849278947415    7.85081292175023   -0.55784554109513
C           3.18373383429115    8.31791575728835    0.10796252656955
C           3.23916130209410    9.62320085470338    0.63876049529330
N           3.28444773262229   10.68714949410431    1.06411089734113
C           4.32795552447857    7.51510531105624    0.29886242865953
N           5.25443105978129    6.85432736340704    0.44126259605426
C           0.26988228750353    9.79644869823730   -0.56136280981046
C          -1.01878169566924    9.89546313142559   -1.04451733373563
S          -1.53498811271760    8.41172275919014   -1.83054869156272
C          -1.91583663100641   11.02116664030501   -0.96073295698058
C          -1.58750127312604   12.14905607622476   -0.19879473316654
C          -2.45286586971666   13.21597098810530   -0.11683771284565
C          -3.66814362906538   13.21332962433564   -0.80452304319491
C          -4.00371633456170   12.08438141381242   -1.55436179851516
C          -3.14627955593313   11.01084338367529   -1.62740888471270
C          -4.57656865617708   14.35890035890649   -0.68731781871537
C          -4.71128124857192   14.91233790731277    0.67177320684507
C          -4.89828339482769   14.05796394697388    1.75671120365059
C          -5.02114092103454   14.56565837853488    3.03638706977449
C          -4.94401523015227   15.93133486817278    3.25353411491214
C          -4.73611924916776   16.78686720887719    2.18389778455697
C          -4.61938361468400   16.28354164514090    0.90243521111484
C          -5.23171938986417   14.88685834302636   -1.74875444970279
C          -4.94714584401015   14.48742644030953   -3.13629963968322
C          -5.99701366436199   14.26329960537913   -4.02520243492833
C          -5.74259344586117   13.89467344927683   -5.33277255026518
C          -4.43747967068657   13.75923320635800   -5.77613321329707
C          -3.38704321279988   14.00092327923393   -4.90565688982195
C          -3.63729401349184   14.36320995494506   -3.59607501371391
C          -6.25423579252459   15.92698530676945   -1.58414858112749
C          -6.25971810605172   17.04680637583426   -2.41748143096359
C          -7.17913698207858   18.05669927333072   -2.24223766680203
C          -8.14715596941744   17.97221201216711   -1.23443478133037
C          -8.17631901340565   16.81981172252516   -0.44105493513824
C          -7.24742326405101   15.81958981452815   -0.60879986570543
C          -9.07951988666135   19.04743909956942   -1.00257596570905
C          -9.04576781760757   20.32855306981346   -1.51449344764939
C         -10.08837487385538   21.12244870384536   -1.02997608518000
C         -10.93091284801243   20.43179441657766   -0.14574316862217
S         -10.43493360275128   18.81501921576888    0.08877172479941
C         -11.93635111744104   21.31899518406428    0.31071402139452
C         -11.72037561889200   22.58290972066129   -0.28080974922699
C         -10.56582163164781   22.49096415430036   -1.16074722850795
C         -10.04818362235077   23.46830733811952   -1.95815143021813
C         -10.61091225438452   24.75939574324951   -2.05817388924065
N         -11.05835438569203   25.80769725509458   -2.17900330166844
C          -8.91600417948447   23.24235517332831   -2.76960198127703
N          -7.99557602277125   23.05757378103386   -3.42837819545326
C         -12.62574218401782   23.54646487300504    0.14370153169616
C         -13.54407953806679   23.03756166156252    1.05261791140264
S         -13.27818678284244   21.31230949824032    1.35093496564702
C         -14.63869441334221   23.62601220990658    1.71647718075279
C         -14.91413571057425   24.94759391340517    1.93582012425710
C         -16.13117213863960   25.43479892668586    2.55970364781148
C         -17.30889507778715   24.74521530360395    2.69614434645038
C         -18.47005700606658   25.27973494510360    3.29172787174523
N         -19.44388219182768   25.65277083939168    3.77198830538558
C         -17.54240713096827   23.43429051945835    2.23129494388250
N         -17.81234022239497   22.38108941124923    1.86053404011201
C         -15.91521651181461   26.82551455852448    2.93731031831618
C         -14.62771703289671   27.22107575642271    2.47701488176143
C         -13.97045022805574   26.08690143637988    1.80478180734771
O         -12.86109445872631   26.09084861797427    1.31449926134063
C         -14.14309691166474   28.48071097950118    2.67977157546611
C         -14.93973673842143   29.42085254082787    3.37110613364913
C         -16.22596496143763   29.03052099263831    3.84379655392232
C         -16.70186517011010   27.71879694199831    3.61497107887648
C         -17.00793317429608   29.97403398947306    4.54055250087136
C         -16.54434424840041   31.24280189381897    4.75938786994497
C         -15.27864939453175   31.62653009942454    4.29177549047783
C         -14.49375599179166   30.73513532872931    3.61171023098100
H           5.86770721397999   -0.77871832339843   -3.00314716388101
H           6.68329314270138    2.16977632171848    0.93735711235895
H           8.84183831784594    1.11740758723807    1.27200805880660
H          10.54573944956561   -0.53285600547751    0.60895509792826
H          10.16069088107277   -2.00680122178935   -1.32659316042620
H           8.06864736577193   -1.84081596303835   -2.61621820817990
H           1.76794160346066    2.52993623522526   -2.96955150510093
H           3.65074992347316    5.21486897922608   -0.90588112401754
H           0.77935301556611   10.59433621389919   -0.05408691133686
H          -0.65445394263784   12.18462142950076    0.34052518781012
H          -2.18435580263707   14.07759256066238    0.47709558124860
H          -4.95195236086190   12.04965343910856   -2.06921261037626
H          -3.42550724690912   10.14380845749810   -2.20924709688779
H          -4.96162940088466   12.99215056722051    1.58764567135891
H          -5.17560700399565   13.89346691493049    3.86755691965001
H          -5.03841517860533   16.32717960657189    4.25363786782386
H          -4.66052223580877   17.85149098896287    2.34958492681826
H          -4.44181010281401   16.95225371519985    0.07286685721504
H          -7.01588561857121   14.36586481539706   -3.67883310775406
H          -6.56522810989607   13.71429243440606   -6.00905745581164
H          -4.23935358471031   13.47318690030406   -6.79826199147500
H          -2.36747363331974   13.91080582450256   -5.25053501673225
H          -2.81600438829051   14.56638671905205   -2.92450765088074
H          -5.51349367525988   17.13068536177070   -3.19430750800787
H          -7.15054322752529   18.91689583090084   -2.89223684111515
H          -8.93247221008698   16.72280232793187    0.32506307941842
H          -7.28656681275244   14.94065866628356    0.01666371599223
H          -8.28756267428287   20.67720461307015   -2.19056788682923
H         -12.63017455131846   24.57163615061451   -0.17594926522078
H         -15.33109658930056   22.90603308684415    2.13830837189969
H         -13.16397702727864   28.75575768219906    2.31661176706465
H         -17.67678844222934   27.45179554935600    3.99096758573782
H         -17.98261292412692   29.67445268537129    4.89701587065774
H         -17.15108539370068   31.95819281070759    5.29408622032154
H         -14.92834371616417   32.63159417810115    4.47361555531210
H         -13.51811124032213   31.02446962867817    3.24938361619528
