126
 SCF done       -238.674590740045          0.000581486160
C          -1.85596678566274    5.58733142517841   -4.82432401853398
C          -1.53255959214218    6.76685895164158   -4.20281277454953
C          -1.90997315325325    8.03490757615839   -4.68574183532602
N          -2.20321616805937    9.08824570874009   -5.03559562036429
C          -0.69165392828506    6.83020180310572   -3.07402500171215
N           0.02919829088060    6.91044715467596   -2.18366529642757
C          -2.44702564784921    5.46714950452950   -6.15250374294177
C          -2.12733649419964    4.17772699079646   -6.67128789686549
C          -2.51248964748415    3.79562304154688   -7.92360037829786
C          -3.25713679984043    4.69514693642707   -8.72039867872106
C          -3.59514625609196    5.97745491989290   -8.19904856826336
C          -3.17512033176127    6.35051284894445   -6.90112260865296
C          -4.34512736431571    6.86071423734043   -9.00140949115363
C          -4.73995544382291    6.49902533834104  -10.26069568643581
C          -4.40506523500360    5.23740599002300  -10.77419631903012
C          -3.67947363177036    4.35499652165993  -10.02055377693292
C          -1.37904059937642    3.41522416032509   -5.65448801285215
O          -0.89589979633088    2.30936558729831   -5.75174770946391
C          -1.39815023361681    4.27265548680578   -4.43785708529729
C          -1.11052997172183    3.72356045486156   -3.22222889961833
C          -1.47777705631733    4.16243621706896   -1.93796611705373
S          -2.78255609081386    5.28168754081059   -1.62836589456299
C          -2.62455423130689    5.15301915050318    0.09675147899594
C          -1.59681558244861    4.27914819067303    0.40691251052761
C          -0.96126859872326    3.69993215689875   -0.72299290730969
C           0.07059708766374    2.80882144248936   -0.35281254359905
C           0.20254350735445    2.71791271969008    1.00198012013512
C           1.13927161250001    1.90533438681783    1.78306269393968
O           1.19424916326073    1.91347747226746    2.98843333123891
O           1.91707286229541    1.14903811589818    0.99778087838241
C           2.85718301417151    0.32398650230776    1.67171846460098
S          -0.91558668177770    3.71780587480339    1.89688388195914
C          -3.47239063761811    5.86969036180850    0.97696072746114
C          -3.43916334387715    5.85038445038380    2.34572148399727
C          -4.41549581843879    6.67426818533449    2.94563396055393
C          -4.63056841968469    6.89470849668755    4.32307336274088
C          -3.79703429341089    6.30023951299173    5.34685618543904
C          -4.18364999300621    5.82344423905549    6.56811549009618
C          -3.10079939744916    5.34258859861289    7.33398705623232
C          -1.88304994977489    5.45513052745723    6.72716851889152
S          -2.06724762649998    6.16838600084467    5.16285076640935
C          -0.54729860655745    5.04653873099133    7.22746541733870
Cl         -3.31716468067776    4.67050342044407    8.90423493572814
C          -5.68792678937659    7.73579462259783    4.65003232319566
C          -6.51153743840188    8.37439038880614    3.68871087610820
C          -6.29291234392803    8.15961261292354    2.31064080432764
C          -5.24440019076571    7.30511523199063    1.98244604267089
S          -4.74292283361107    6.90199966294060    0.36279574402377
C          -7.09353519404413    8.78070471913668    1.27626373060663
C          -7.47361675729342    8.22677650584902    0.08455020911195
C          -8.20655216969132    9.11828771785217   -0.72343145984655
C          -8.38779805016614   10.35914119164395   -0.18216744678738
S          -7.65124777751911   10.43175162469752    1.37836496590999
C          -9.11322223377913   11.51497210701925   -0.76197954254246
Cl         -8.81810852981121    8.67606125486031   -2.27056080103980
C          -7.50260844886760    9.17914347847896    4.29586213282739
C          -7.44146721181722    9.19743549203894    5.66232649747943
S          -6.14923860814868    8.18203983231913    6.26789791371371
C          -8.28565788247074    9.90605664041384    6.57779631973180
C          -9.13646546356906   10.90802050616946    6.17225359073821
C          -9.98589384884640   11.62663101552747    7.01129892996812
C         -10.03073307112168   11.32944300261812    8.44946459365743
C          -9.26458983338822   10.39709072315738    9.06197853885332
S          -8.13689579104509    9.40278475512235    8.24631677817439
C         -10.99786434353223   12.21253791701097    9.00101486374293
C         -11.52091124027416   13.01462041045009    7.99085931084354
C         -12.49512687971997   13.91676403686836    8.46908788753793
C         -12.68064223475093   13.77786128153558    9.80804677546404
S         -11.68858816200964   12.55800113626643   10.53722413074953
C         -10.89633041618075   12.67568159038487    6.73311631472452
C         -11.23669511140046   13.38159730955393    5.56584124656068
C         -10.75525979181365   13.24685037464287    4.29004758129359
C         -11.09956263664882   14.02799314530669    3.17362376774269
C         -12.01048554312578   15.04283371961995    2.95585820698618
C         -12.09653176344668   15.73401227519330    1.68189378646125
C         -11.18859493985116   15.69945613167445    0.64954356935128
C         -11.34296094553138   16.40590315575358   -0.56078550774078
N         -11.40338763501338   16.93957328501148   -1.57617774321796
C          -9.96381258579992   15.00647313161000    0.62844054113593
N          -8.93827822032527   14.49789362565602    0.51138098450062
C         -13.29419691102780   16.56695849346914    1.69149692428180
C         -13.88641563380025   16.47150902660851    2.97974977051994
C         -13.09363935950818   15.55619342450228    3.82067531299053
O         -13.33845907397946   15.30755102715076    4.98809855753041
C         -15.02043791845975   17.15469952600800    3.30861536901353
C         -15.63208610331741   17.97990444067766    2.33792107457200
C         -15.05112009028197   18.07439640614025    1.04128121798456
C         -13.87240229757233   17.35556432897015    0.73326150137373
C         -15.66998788925576   18.89725785090200    0.07885513225428
C         -16.80703072081311   19.59604754447252    0.38138840070222
C         -17.37785931779605   19.50277761409534    1.65903699006174
C         -16.80275789172781   18.71156158207056    2.61638840910880
H          -2.25305790858577    2.81891590869751   -8.30434402766939
H          -3.44993194252626    7.32357453870183   -6.52446331168890
H          -4.59764004491544    7.83214180945242   -8.60244920100418
H          -5.31223006357888    7.18383005289667  -10.86845425269943
H          -4.72494207712080    4.96786701551890  -11.76966911625268
H          -3.41906733179439    3.38196357465343  -10.41094207030028
H          -0.60193954463817    2.76457641691451   -3.25819295903769
H           0.68833424152438    2.26146609113390   -1.04009875829354
H           3.31459782303978   -0.29955937811780    0.90816086830012
H           2.35391137864366   -0.28937202483439    2.42192102272498
H           3.61172034060515    0.93789616336326    2.16781705411270
H          -2.73733043720308    5.25365138783381    2.89587566574729
H          -5.20249692785215    5.77165954002547    6.90399200040307
H           0.13220729935166    5.89779441774022    7.24895244546792
H          -0.11232597794990    4.28827250319556    6.57657915401137
H          -0.63945259293633    4.64061826654627    8.23170672236155
H          -7.28056761734450    7.20959056694950   -0.20027543431742
H          -8.78753938153010   12.44878173313750   -0.30825547994932
H         -10.18769398078323   11.40929994881777   -0.59984212969176
H          -8.94058855541667   11.55876386312701   -1.83580440272518
H          -8.25003507211185    9.70364120410107    3.73228650075316
H          -9.12106389846043   11.14676890648991    5.12153909202830
H          -9.31689209899302   10.21646398489778   10.12411923188044
H         -13.03052972685996   14.62180378018528    7.85971931125616
H         -13.35339323080199   14.32474941795309   10.43941005589952
H         -11.98588010110018   14.14449345788645    5.72364869031125
H         -10.00314617103978   12.49993541737736    4.07924102767589
H         -10.52189588747378   13.76655466500975    2.29433813909349
H         -15.44706333012444   17.06712135096104    4.29700805954778
H         -13.46186629308951   17.44731352786766   -0.25938268190375
H         -15.22566826322302   18.96680624163107   -0.90334384839550
H         -17.27254593249011   20.22506714861384   -0.36269551043142
H         -18.27536204495240   20.06075929811045    1.88121932645210
H         -17.23809597288439   18.63566539219731    3.60232329818907
