164
 SCF done       -269.427543230167          0.000967587519
C           1.09435398569703    2.63421851093895    3.00064513629366
C           1.44728354341108    3.95711704841113    3.03116242503014
C           2.06927189163647    4.57526897575164    4.13457466423418
N           2.55642766572784    5.12962171432024    5.01386531073718
C           1.30885672413300    4.82998302166755    1.93262716477661
N           1.28542633695917    5.56814147229568    1.05386979705908
C           1.45917021563074    1.63731734824634    4.00013911006827
C           1.36640906860196    0.34450500471497    3.40537833855029
C           1.68696405787919   -0.78689354761128    4.09858946401000
C           2.10894507712329   -0.67600026353895    5.44287846362911
C           2.18571357312244    0.61193198103972    6.04803163108118
C           1.85646488098379    1.76776823666951    5.30377410388106
C           2.59902494709717    0.70724273127780    7.39253021798638
C           2.92500088511813   -0.41377894558099    8.10591911672296
C           2.85137585838386   -1.68126454845384    7.50881343377778
C           2.45257889105464   -1.80938112570906    6.20598430721106
C           0.87578912956869    0.47805682729271    2.02081737109338
O           0.72699124899259   -0.39195189674901    1.19358486592833
C           0.53306411840461    1.92148160618654    1.86710372641968
C          -0.27036901968402    2.32498963657786    0.85483539529928
C          -1.00264948268759    3.56008027181615    0.74311069720399
C          -1.24449105922762    4.10705869174066   -0.52595805699931
C          -1.91964714082944    5.29773360615946   -0.62662464072348
C          -2.40693552270565    5.94188071186398    0.52436501105447
C          -2.22261090060300    5.37899368598996    1.77979415560914
C          -1.51526514565599    4.20052189674630    1.88025531377437
C          -3.07388736404352    7.15982129900390    0.12299038632842
C          -3.00923202588468    7.26609615212006   -1.27702059628385
C          -2.25376674362627    6.09674836561489   -1.86402097236125
C          -0.97220697935027    6.56664756628814   -2.58013186965074
C          -0.04589086943145    7.37209204889173   -1.67708664180295
C          -3.12652237800880    5.28910208784827   -2.84177718079937
C          -4.42195507173663    4.79579581292286   -2.20837078819495
C          -3.58792850047552    8.33286389228277   -1.92103309610014
C          -4.21952145673833    9.33775885882751   -1.17294700134206
C          -4.27082083609971    9.21734025861604    0.22198490253627
C          -3.71061740543923    8.13806787059194    0.87325677083761
C          -4.80695532775177   10.46619189699296   -1.86363690951681
C          -5.05559204885159   11.66312996424831   -1.30319521228404
C          -5.64948117016079   12.78288107715858   -1.96580340363417
C          -6.29181750444773   12.85980617371258   -3.16813253088533
C          -6.77634947098471   14.15449660362515   -3.47976488534561
C          -7.52641878219204   14.56504037355361   -4.60128402853600
C          -7.85737174464327   13.67368268689655   -5.69458494020143
C          -9.01273561157516   13.63704138719575   -6.42143857231762
C          -8.97423041482985   12.68767017984201   -7.46549916208992
C          -7.80193631699635   11.99764049472356   -7.56096994824726
S          -6.71010977406563   12.51942619929166   -6.32213300581169
C          -7.41719052615070   10.94140081546230   -8.53110685506410
Cl        -10.30933433367163   12.43578644439117   -8.52440529984909
C          -7.93536301578392   15.89637688457358   -4.62301589111082
C          -7.61586930840051   16.82571720720055   -3.60565524413203
C          -6.87768914323184   16.41463572986999   -2.48089789788386
C          -6.47564524140314   15.08586841052660   -2.45365541715663
S          -5.60964676959270   14.33246819042681   -1.14915707444958
C          -6.56909094286349   17.34009152230097   -1.40764447045741
C          -7.40184208307171   18.24013443971581   -0.80939121339508
C          -6.75613233142891   18.99190104731153    0.19701366850513
C          -5.43901879041209   18.68515659761196    0.37364520079684
S          -4.97129690453256   17.42576944527461   -0.71909456894729
C          -4.46343076923539   19.27526896416977    1.32480926636307
Cl         -7.58152559334537   20.19547508181355    1.11472350960803
C          -8.08530262201019   18.12875384322796   -3.90664029377017
C          -8.76166229346275   18.22096873860218   -5.08524034223129
S          -8.83749162421497   16.66612408967033   -5.89752021852223
C          -9.40652167638873   19.37782605757759   -5.66464067645227
C         -10.12039235013029   19.25839993322268   -6.86494827826767
C         -10.76903074580414   20.35287353693037   -7.38149286598658
C         -10.71653389058047   21.59138830747564   -6.71931973082216
C          -9.99672029678671   21.72593573546519   -5.54076189305820
C          -9.35062282890373   20.62268073319246   -5.02321645150286
C         -11.50607901538058   22.54575728798642   -7.46361195675124
C         -12.04715409883692   21.89863432482455   -8.58981273371647
C         -11.60944255648514   20.45262588507316   -8.63263826055549
C         -10.77531787082318   20.15421155701413   -9.89281007732929
C          -9.55847993571750   21.06168530374828  -10.02715235292576
C         -12.81550141225154   19.49654279484373   -8.57546145695416
C         -13.69092355744894   19.71971263855230   -7.34815203476470
C         -12.85724898490118   22.58265960282989   -9.45995102689799
C         -13.15837138423473   23.93669547523290   -9.21941114580611
C         -12.60158102137390   24.56729379698512   -8.09384597723209
C         -11.78080644805561   23.88571681637885   -7.22186860883503
C         -14.03394237900866   24.61869130910279  -10.13023207647440
C         -14.49934651257146   25.88742671401252  -10.00453809684189
C         -15.37775620804705   26.45358274138552  -10.95556153316543
C         -15.90438637060463   27.71351718612701  -10.87827596372864
C         -16.81517715289905   28.33280089807398  -11.82191528682098
C         -17.28693666612541   27.79504105612268  -12.99288898238568
C         -18.17143976152575   28.45772473092341  -13.86893569610002
N         -18.88825905856009   28.93325853171337  -14.63002883778889
C         -16.96687401148733   26.52101747176390  -13.50458600881393
N         -16.76038210742519   25.50151906221350  -13.99281244128276
C         -17.14982789919933   29.65960494553992  -11.31325265490266
C         -16.44888893986544   29.86880861322664  -10.09207024494435
C         -15.64257541114768   28.67574212464701   -9.77896573500117
O         -14.92137279310428   28.52982373900393   -8.81226746666173
C         -16.56599473364349   31.02704062508306   -9.38003415432938
C         -17.40870652532971   32.05208528187643   -9.86508515690506
C         -18.11522228281220   31.85135594532921  -11.08550382583246
C         -17.97230344951135   30.64040246919361  -11.80143172525984
C         -18.95501993999076   32.87941199069246  -11.56020061627071
C         -19.09173411438979   34.04948729293089  -10.86422686661880
C         -18.39533879727959   34.24589509822876   -9.66242505153311
C         -17.57159703147333   33.26844229521251   -9.17370298110595
H           1.61841382850829   -1.75666131672995    3.62822614001953
H           1.91482707498715    2.73079081393923    5.78717698656498
H           2.65755201120138    1.68569673792898    7.84658058034040
H           3.24204525770555   -0.33007177920224    9.13471587615869
H           3.11187917571935   -2.55552150267442    8.08648742233926
H           2.39381617704917   -2.78282610289809    5.74118489672975
H          -0.42044255151806    1.59826695722449    0.06206839555593
H          -0.85781879846185    3.60497916044903   -1.40060841807788
H          -2.62096727233939    5.85503711791034    2.66307532350221
H          -1.38042894642398    3.73820558144640    2.84804677080662
H          -1.26073997763476    7.17342660126585   -3.44175779669830
H          -0.44067404875316    5.68850589037622   -2.95269604139706
H          -0.54950962717767    8.26163082075382   -1.30440246903486
H           0.83347028281225    7.68502539125874   -2.23525527787861
H           0.28184809629828    6.77933661569966   -0.82724736752990
H          -2.54984395079065    4.43458347226754   -3.20166277694250
H          -3.36092813105061    5.91889414527271   -3.70248414344059
H          -4.21282975956719    4.15308462778253   -1.35598538919300
H          -5.00104713749796    4.22819853000613   -2.93324419815742
H          -5.02525406387228    5.63357601237655   -1.86532253760544
H          -3.54728751509394    8.42074931791337   -2.99754727023141
H          -4.78176292945359    9.97295394537489    0.79857160242501
H          -3.76848976269902    8.05747479380132    1.94843927341140
H          -5.01704331908633   10.32039193545173   -2.91502021721686
H          -4.77181759660105   11.84496299861924   -0.27562845438463
H          -6.44264882270494   12.00477286640001   -3.79965890317738
H          -9.87924100691447   14.23460257619629   -6.20869354469491
H          -8.23284091279083   10.77339743501875   -9.23002414599963
H          -7.19514778693965   10.00726166169887   -8.01579734032505
H          -6.52846251602168   11.23664879163723   -9.08810014970591
H          -8.44618171426175   18.34061880610801   -1.04156088718313
H          -4.95140902559616   20.03958386927611    1.92451687644120
H          -3.62873713556393   19.72561451809184    0.78837973761696
H          -4.06163755137474   18.50829247154117    1.98600248649820
H          -7.89890799143050   18.96512362400681   -3.26004291724499
H         -10.15958269157892   18.30071191636049   -7.36393182989932
H          -9.94655405615384   22.67578251012955   -5.03023391774771
H          -8.79545042489724   20.72314664581434   -4.10428694099942
H         -11.41425576511994   20.27219693363853  -10.77042284081804
H         -10.44807565991540   19.11321231600907   -9.85455311713916
H          -9.86011022508486   22.10509579758063  -10.08886371934228
H          -9.00363879096998   20.81055479125872  -10.92808774509417
H          -8.89611271204528   20.94590799279857   -9.17205347483696
H         -12.44552635994030   18.46929485637820   -8.57445218746052
H         -13.41430325675655   19.63485718580700   -9.47799113781067
H         -13.12059694520317   19.56287310533877   -6.43521620979040
H         -14.52695932110899   19.02431918153910   -7.35487025554605
H         -14.08665065560469   20.73300616588766   -7.33544354423054
H         -13.27903101546607   22.09343685659793  -10.32652220007217
H         -12.81804286792824   25.60704588918774   -7.90752007349470
H         -11.36187585920543   24.38559049727258   -6.36154478012201
H         -14.35697821614199   24.04164644372443  -10.99028581134493
H         -14.22054973060139   26.50377271047048   -9.16481172751892
H         -15.64767617264687   25.82672786446584  -11.79607390905483
H         -16.02223958714644   31.15930470611774   -8.45628070243911
H         -18.52252979762898   30.52109422567467  -12.72107309603499
H         -19.48892236730351   32.72367015569618  -12.48626176215259
H         -19.73760233605965   34.83079251001988  -11.23618631431891
H         -18.51523434096300   35.17521002884757   -9.12566421431153
H         -17.03307641995067   33.41359006438039   -8.24845837582153
