108
 SCF done       -211.725640171840          0.000642522575
C           1.61440428417876    1.28144223429125   -3.31674571801503
C           1.86213097891556    2.32618086933687   -4.17008250447666
C           2.06782484933731    2.17456385485894   -5.55759693905804
N           2.24922620474543    2.10806620178998   -6.68867320752807
C           2.04305011010276    3.65974971660772   -3.75815944702199
N           2.22362961399379    4.75711344765518   -3.47130812817446
C           1.67131609606414   -0.12845424158345   -3.69171449459126
C           1.86380653910977   -0.90595630845738   -2.51231615129122
C           1.99844865415474   -2.26350448777257   -2.56129436247846
C           1.93555940249962   -2.91707131471533   -3.81260132528020
C           1.72185071135529   -2.14758972931094   -4.99286720345859
C           1.59016018753970   -0.74195279589443   -4.91245929764585
C           1.65387473051956   -2.81258881990785   -6.23382582464200
C           1.79482721190235   -4.17167317301567   -6.30832419097939
C           2.00663695112823   -4.92823968750648   -5.14611803181431
C           2.07525090697924   -4.31437953562971   -3.92486397108024
C           1.86829672225800   -0.01578977900984   -1.34036822769295
O           2.05499152703932   -0.30214110934894   -0.17981635461303
C           1.53162288127247    1.33829479282185   -1.87266251157712
C           1.16148692814353    2.30530124127547   -0.98846551106736
C           0.46991562558222    3.51342572436837   -1.22354497019253
C          -0.32738341135929    3.87398226159746   -2.30102593901605
C          -0.85302530209379    5.15093201746282   -2.15910691336368
C          -0.45807441679808    5.77996360506821   -0.95962854434902
S           0.52977567116056    4.78127651865913   -0.00278589394700
C          -1.00407985275244    7.08740708398062   -0.93037253256412
C          -1.74345990809069    7.28048827297995   -2.11403365915315
C          -1.66915517073860    6.07680525773748   -2.92423763601246
C          -2.21729796810070    5.87009872851893   -4.15700618750411
C          -2.98373365282434    6.86594080540629   -4.79593338961781
N          -3.61028491466182    7.68870882706481   -5.29198938372727
C          -2.04370067720631    4.65329897524809   -4.84834073198121
N          -1.89865231173918    3.65481806291342   -5.39326093973886
C          -2.30674858686087    8.54889921047424   -2.19445664983659
C          -1.99962269805577    9.32392111035877   -1.08673368043977
S          -0.99415833567107    8.46700775360881    0.07520048601914
C          -2.34040071365615   10.66767865485563   -0.79687598637292
C          -3.09904293729334   11.65032905165063   -1.37570517501342
C          -2.97565499447022   12.86398680269628   -0.58860263261666
N          -2.16125140145076   12.60663043216945    0.48456886950032
C          -1.75578735426941   11.28798266268045    0.42269441536463
O          -1.04739212810990   10.74208279168039    1.24220970437316
C          -1.81334820130479   13.45770414084475    1.59082395290126
C          -3.73165771744952   13.85204416299907   -1.15382639153395
C          -4.38769968166743   13.21743628922392   -2.34461670099785
O          -5.15457282490491   13.71364841571631   -3.13310387220186
N          -3.94531125966434   11.90173141813105   -2.41933475259175
C          -4.41000757588819   11.01294498567756   -3.45220814454248
C          -3.93262487001739   15.22675136336300   -0.86193071447114
C          -4.95198560486683   16.02531231818075   -1.35569379070606
C          -4.84872857635703   17.34252123020248   -0.91475689086705
C          -3.72678740741384   17.55842175008794   -0.09334270168788
S          -2.81442311691789   16.13739041003041    0.14752153128876
C          -3.69882942664763   18.91654642330463    0.29680452994196
C          -4.81548227301112   19.56794426111690   -0.27097754931330
C          -5.56616027509110   18.60201584736555   -1.05896986268659
C          -6.69742269756999   18.82994189600735   -1.78286056475858
C          -7.28191735726898   20.11088692311692   -1.89998641898050
N          -7.76004062569492   21.14395699212791   -2.03170969515864
C          -7.37309023731492   17.80519771239552   -2.48200464946519
N          -7.94853049659104   16.98751778943508   -3.04206183705085
C          -4.90347015218482   20.90729334008348    0.08671544011257
C          -3.86205884069918   21.29624489046014    0.91853919821827
S          -2.74079866217812   19.96528070443402    1.23039565773713
C          -3.53558281624425   22.54352913730760    1.49206344413766
C          -4.34141386843889   23.62380733612803    1.71513486077184
C          -3.87988476049785   24.90184127126568    2.22845864879336
C          -2.58618324372683   25.35582215859181    2.23327371999517
C          -2.19650081009574   26.61999818234903    2.72293675359995
N          -1.81371701480902   27.62951485835216    3.11307790808316
C          -1.47656142372088   24.65152726271356    1.72093365323337
N          -0.53080008401115   24.14709200347404    1.30802633005044
C          -5.04776522465401   25.66007288991909    2.65650684689353
C          -6.21411797331264   24.90806260544571    2.33875931584287
C          -5.82863886350171   23.63362479694139    1.71078438403334
O          -6.58140649558561   22.75797433324584    1.34157640112648
C          -7.46879096516067   25.36740459438582    2.61815219189761
C          -7.61673009595230   26.62511544711465    3.24432204972217
C          -6.45427956579837   27.38054068792560    3.57429439741315
C          -5.16784715670452   26.87905887287885    3.26980761317196
C          -6.61412682707311   28.63012870793765    4.20690751314014
C          -7.86099775179551   29.11273959140077    4.49850952501139
C          -9.00462980390852   28.36901176450956    4.17140263843734
C          -8.88515429173133   27.15189885490550    3.55698846195419
H           2.15213646962314   -2.83271595624922   -1.65657093914431
H           1.41648866438818   -0.18512964251790   -5.81988923555702
H           1.49390427147641   -2.22534757712748   -7.12602300743896
H           1.74454943910140   -4.67150004626063   -7.26401804642327
H           2.11501454878308   -5.99976310187150   -5.22308668836976
H           2.23799161303671   -4.89170104972402   -3.02647231507322
H           1.38327548672243    2.07672959762001    0.05008439008065
H          -0.53798420478197    3.21258410207448   -3.12182614912884
H          -2.89914934156424    8.90101740480526   -3.01551122039062
H          -2.70841886304966   13.87403026076913    2.05327972382433
H          -1.15601470736029   14.26819028218164    1.27240565543018
H          -1.28617824429082   12.83531795167459    2.31407206846855
H          -5.15185020407010   11.56315141430498   -4.03134746021430
H          -4.87731337454745   10.12761248171881   -3.02026484544876
H          -3.59520856966936   10.71973254810524   -4.11579777458759
H          -5.71641104404109   15.63823461014788   -2.00454882172973
H          -5.67656427220927   21.58012157148558   -0.23306766557885
H          -2.50738519067567   22.61673135249720    1.82827456464191
H          -8.33690954433363   24.77789485707403    2.36327526195378
H          -4.30731801893590   27.47117936172167    3.53816273502655
H          -5.73080236380764   29.19997571566131    4.45531133472850
H          -7.97284185368248   30.07113960793790    4.98291900411981
H          -9.98062973195497   28.76496486676803    4.40894591182348
H          -9.76178409817568   26.57436477812185    3.30261186160675
