84
 SCF done       -168.185906678633          0.000533778869
C           0.43461340741573    1.87213065990300    0.85447166337468
C          -0.90432253372188    1.59856512911147    0.82069667676984
C          -1.57490185317976    0.84088077083386    1.80555095912789
N          -2.17639699566993    0.23047169764152    2.56788722781962
C          -1.76405791035456    1.98743143427921   -0.22570095780386
N          -2.50259002264422    2.26782151882043   -1.05919740881592
C           1.38540403693212    1.34516159319968    1.81947752363663
C           2.69614656871766    1.42296637012574    1.26064425904739
C           3.79028841350495    0.96905732004743    1.94099558453542
C           3.61999416935114    0.42598047874772    3.23402748050112
C           2.31538302602115    0.37520591185693    3.80811297196704
C           1.19875476964673    0.84092006341832    3.07870807839118
C           2.16504739951326   -0.14894897494708    5.10830440426909
C           3.24815492933319   -0.60823687331270    5.80690351146873
C           4.53054837650250   -0.56410916187192    5.23895296509781
C           4.71264943601994   -0.05807433813493    3.98050154245125
C           2.63064185245237    2.06944346014470   -0.05870101537277
O           3.51457441832583    2.25306664984374   -0.85860600539532
C           1.20993574652628    2.54044095355781   -0.18097564172498
C           0.90222893166745    3.53005446857957   -1.04196217250416
C          -0.29604081848478    4.33058641240395   -1.03520622370638
C          -0.90815598657740    4.80807430102722   -2.18036234264039
C          -0.48091388301602    4.59804093729008   -3.49252054942943
N          -0.11314033140445    4.43900819249479   -4.56779152605371
S          -2.36338652457193    5.68359575179837   -1.83925635467245
C          -2.14413275821184    5.47075696717102   -0.13335722319780
C          -0.99105164140453    4.74319939126646    0.13892982375976
C          -0.46797459376610    4.53349702463841    1.42399565481197
N           0.01292106111243    4.38073686370466    2.45543313648058
C          -3.10081559669322    5.96173875107054    0.79530799430623
C          -3.22167396972756    5.64450174640901    2.13666202560676
C          -4.31516850640356    6.28013375778563    2.72255916786022
C          -5.02687076682103    7.08952369737573    1.82173567960043
S          -4.36065437337897    7.06359774799965    0.25514541050170
C          -6.11576671206655    7.68507079185384    2.51252212083763
C          -6.09349811927392    7.24565875163887    3.84480715211722
C          -4.97155750920374    6.33670806653280    4.02106942012788
C          -4.62869430128786    5.65291430620596    5.14832868045902
C          -3.52082446692079    4.77776712929991    5.19608851895582
N          -2.62815352371447    4.06082083864809    5.24622542701737
C          -5.37799800306945    5.74433878707498    6.34225670365803
N          -5.99183431392767    5.79397933326185    7.30876276807795
C          -7.13145173164214    7.78659116490098    4.60794004711552
C          -7.94109617737614    8.61522821592698    3.85953832449019
S          -7.41512020677020    8.73907967644265    2.19133681872583
C          -9.08239867179978    9.35458728829434    4.33141700977217
C          -9.20379031674334    9.79987421682286    5.63831794504211
C          -8.26452324186609    9.70297684806577    6.66384203807648
N          -7.49159764923621    9.65651696759205    7.51230173946235
S         -10.69555580104049   10.64726013283683    5.91264650553734
C         -11.18274228839059   10.42532640457327    4.26063526654616
C         -10.21664891029445    9.71531121301837    3.54651962284621
C         -10.35171069626214    9.30300328852631    2.21336543546913
N         -10.44005018075661    8.92963915326716    1.12974599544131
C         -12.43372800137725   10.95203770318290    3.82309369203840
C         -12.82935164088987   11.00064399850501    2.50941467831086
C         -14.04502288605709   11.51641710378033    2.06264154629531
C         -15.02446817517381   12.08719322026308    3.00030241595391
C         -14.84325760659226   12.15583784560189    4.33562751331690
S         -13.44356584319535   11.57439572771307    5.13635404849245
C         -16.10609324048138   12.51361005802863    2.18797425978721
C         -15.83162550854449   12.23625375404318    0.84192945910543
C         -16.90548166947645   12.62555065145732    0.00642536650131
C         -17.92366357014344   13.17670418682782    0.71514476396616
S         -17.63911321059189   13.24845798300194    2.42171552364776
C         -14.53852978662005   11.61690202131216    0.75352133716351
C         -13.84564400947656   11.16231080144478   -0.41819826400444
C         -14.18805803726429   11.41687434713724   -1.68172515945073
H           4.77459902851216    1.02895315119082    1.50083901348397
H           0.22365533442931    0.81130040747981    3.53903144829422
H           1.17573011992498   -0.18157499761798    5.53971598257661
H           3.12326261857940   -1.00824776685869    6.80188941682228
H           5.37394270470188   -0.93102471547554    5.80451658033971
H           5.69802935545277   -0.01948819882072    3.53968381952594
H           1.64846216660188    3.77534247748657   -1.79051803552598
H          -2.55449415543329    4.97695384702050    2.64975292724090
H          -7.30167934340832    7.57600047303975    5.64786392675338
H         -12.14037147782235   10.61965427775582    1.77163880084016
H         -15.57416460090022   12.58275027766433    5.00429347229018
H         -16.94465151737163   12.50213177982044   -1.05970284606970
H         -18.85322163527292   13.55699080291525    0.33867379940898
H         -12.96135644695007   10.56695420467880   -0.23016137709391
H         -15.03906127316763   12.02022229911602   -1.94048127917609
H         -13.60780234677215   11.03169902907550   -2.50188069027850
