88
 SCF done       -171.869873259450          0.000637389635
C          -0.86540520040522    0.93290936004039    0.74186098037723
C          -2.17997902301571    1.30763852842365    0.86028560045818
C          -3.10232744719616    0.67238550934250    1.71686007415336
N          -3.89640427634480    0.18817389364988    2.38936844373867
C          -2.78738233773277    2.30334247546026    0.07257456278592
N          -3.32949412658004    3.09050500689832   -0.56452785923757
C          -0.27368592223497   -0.23832735707038    1.38083475971395
C           0.90307266921890   -0.60073203500093    0.66286061461502
C           1.65476092915414   -1.68247911711299    1.01993890557607
C           1.26407163425271   -2.45398477494635    2.13825624858799
C           0.09973941450128   -2.08383315542107    2.87128442231289
C          -0.66526965673298   -0.96313349732707    2.47301868549127
C          -0.27182340191568   -2.85469032872194    3.99114785295567
C           0.46787696478679   -3.94200851322875    4.36929286715650
C           1.61332499002093   -4.30676631532042    3.64653652919398
C           2.00255167829435   -3.57897430805464    2.55478458106400
C           1.12751607657334    0.37203683067227   -0.42148764557519
O           1.98986996612928    0.36146656097264   -1.27101650666412
C           0.09533695594199    1.42783186114933   -0.21905899012205
C           0.25193478023330    2.62979299192618   -0.84484296714217
C          -0.31950653872006    3.87165907511351   -0.50278483739893
C          -0.88817527358175    4.26272268543531    0.70142334132193
C          -1.30565399772039    5.58515893709872    0.68415046784242
C          -1.05607763921456    6.22670001206352   -0.54906093045955
S          -0.28585993071602    5.19822446756223   -1.66493980440801
C          -1.53608194230554    7.55352085952879   -0.46362698876177
C          -2.08819665056471    7.75478372995005    0.81420290550592
C          -1.96729477744793    6.51916353077022    1.57412375914221
C          -2.40122836193252    6.27389406090404    2.84408351094821
C          -3.04057636329503    7.25728860736065    3.62695047226129
N          -3.55517643195585    8.05536654204532    4.26950717108633
C          -2.22615004044951    5.01187940095728    3.44991198356541
N          -2.06974535816735    3.98536272393813    3.93678525223836
C          -2.58718910526737    9.04097710558003    0.99862695116864
C          -2.42216890819626    9.82910301908619   -0.12861940791956
S          -1.63858235176575    8.95805075719479   -1.43777225066225
C          -2.80045891915580   11.18345767527176   -0.28747309948115
C          -2.65346224771194   11.97557477037988   -1.40979650144320
C          -3.13526764078714   13.26633816883035   -1.19253165130564
C          -3.65538366016918   13.46260809379220    0.10897229354909
S          -3.54584970851517   12.03420824677293    1.06422577455544
C          -4.08682075704908   14.78459715713536    0.17037044736977
C          -3.81996343101196   15.35990627822786   -1.09250653259567
N          -3.23296716524983   14.43017265388154   -1.90847411505559
C          -2.85091754376873   14.61401379455557   -3.28072721977928
C          -4.19984671880909   16.70175017370163   -1.18408072239075
C          -4.75155103811946   17.15516268502456   -0.00484128539619
S          -4.81212134642393   15.91872911225543    1.24739312248884
C          -5.24562512753002   18.45560155967300    0.27437033574903
C          -5.80061130184187   18.90108945344101    1.45431566505149
C          -6.17744243936741   20.24452270949065    1.37153332022057
C          -5.90664657680208   20.83127555528460    0.11474936326395
S          -5.17909220804987   19.70254852836453   -0.96848853922824
C          -6.33564104870971   22.15408404613000    0.19154404787084
C          -6.85720519043048   22.33561487849751    1.49555686753919
N          -6.75203383811998   21.16683268800408    2.20093368486369
C          -7.17401175873765   20.93697429053660    3.55484407777414
C          -7.33609650558964   23.62378300379730    1.73347830999824
C          -7.18640824650963   24.43073317832652    0.62656006426227
S          -6.44172895013117   23.59657252356159   -0.74005774593089
C          -7.55010976828420   25.79562470241265    0.47487669202547
C          -8.15129108413918   26.70116761386469    1.35653132292507
O          -8.28288686202358   27.89298219417871    0.71557744884577
N          -7.79743476304536   27.79649314711247   -0.52774715933278
C          -7.36295376412864   26.58514140217527   -0.69807190041506
C          -8.63814977042777   26.65944753578998    2.71348505800892
O          -8.61935656353097   25.70790622037511    3.46221106926465
H           2.53976820382842   -1.94574829499356    0.45990311299535
H          -1.53496285020056   -0.69509444458860    3.05233860769272
H          -1.15608225912900   -2.57070770221736    4.54246721643821
H           0.17413419026118   -4.52718775974533    5.22786684851106
H           2.18635029923720   -5.16689467191698    3.95931775842188
H           2.88420796955995   -3.85510913635594    1.99492103790660
H           0.97054117181595    2.63442899739089   -1.65852286411066
H          -0.94479873749270    3.61601652014095    1.55787754675990
H          -3.04978554003412    9.40683935766614    1.89756943608849
H          -2.22044904586258   11.61210907768911   -2.32425639083096
H          -2.67500817951265   15.67200157062033   -3.46662834301012
H          -3.63358524626180   14.26058730933745   -3.95867056301861
H          -1.93441259304169   14.05972374487402   -3.48321534894208
H          -4.09262485557974   17.32955922533923   -2.04990236112836
H          -5.91768888651680   18.27009970847680    2.31640064236111
H          -7.55642711252088   21.86644144821762    3.97013442232188
H          -6.33330541758056   20.59315201153571    4.16146774303425
H          -7.96178797563212   20.18044517104754    3.58745622680793
H          -7.77349718765605   23.97932475568743    2.64799376018638
H          -6.92842210811578   26.28199424312288   -1.62930239388429
H          -9.05872889139324   27.63100569735047    3.02672865673957
