108
 SCF done       -217.923567373591          0.000595453194
C           0.74529929696115    1.12582499220399   -0.30966428692967
C           1.24203963864830    1.98836092698969   -1.25256867221214
C           1.65365134130353    1.58699554469683   -2.54121188182569
N           2.00854253100848    1.31328282141210   -3.59739218057855
C           1.49602847263323    3.35271989850877   -1.01709364743760
N           1.74208496579965    4.46328507865022   -0.85855037744725
C           0.69653176692286   -0.32563223884169   -0.45272946270856
C           0.62064158004413   -0.90887979884209    0.84615952775619
C           0.60311309223788   -2.26236158304646    1.02431958789819
C           0.65016546271931   -3.10676569921922   -0.10781890836628
C           0.70310610996385   -2.52896829636680   -1.40957384373509
C           0.72559918462948   -1.12370324713969   -1.56419695419620
C           0.74034921452300   -3.38250509060078   -2.53069456662454
C           0.73136646513928   -4.74206484629169   -2.37571948032500
C           0.68143000086331   -5.31016682335167   -1.09398441662867
C           0.64135635307440   -4.51012169804842    0.01568558822769
C           0.55156827962494    0.16046840697561    1.85504039122759
O           0.53113210494853    0.05793817645678    3.06012858478501
C           0.44796078743751    1.43030538237924    1.07471839242189
C           0.04720549625696    2.55929477270938    1.71948254420460
C          -0.47509780803267    3.75297964601675    1.17196565223682
C          -1.06679570936394    3.96004464138167   -0.06498713650996
C          -1.48479247870264    5.27389276283946   -0.23436100076177
C          -1.21017364743281    6.08713440219244    0.88611517661906
S          -0.47070731613635    5.21849015518962    2.14717837550922
C          -1.63896470349060    7.40755359358977    0.59865313442493
C          -2.18136264369284    7.42267622663889   -0.69841269704342
C          -2.10804262024385    6.08540336004552   -1.26286722585267
C          -2.53719351024220    5.69407851913841   -2.49827943670725
C          -3.15772374703575    6.60069900448824   -3.38191878937708
N          -3.67403028632560    7.35800097238184   -4.07203567591603
C          -2.40006266766255    4.35875798354020   -2.93353747610954
N          -2.28569227681029    3.26455383380012   -3.25541825519701
C          -2.62162171928702    8.68077028529600   -1.08904538949150
C          -2.42622871321432    9.63016195493382   -0.10013900973113
S          -1.68135336251979    8.95202477090361    1.33548395395277
C          -2.78300803853325   10.99677505190274   -0.21422747019571
C          -2.66143903371868   12.02882990949412    0.70096473385829
C          -3.14829205196249   13.23180103386038    0.18560329584626
C          -3.63371956711986   13.09496434172377   -1.12738118337301
S          -3.49484140312084   11.51629640647937   -1.73379731370799
C          -4.11577252398680   14.34705530869107   -1.56457810507497
C          -3.93861822761109   15.29280063376070   -0.54028694322929
C          -3.32383413152630   14.61867818621552    0.59699802504129
C          -2.99310669833290   15.17181371064553    1.79865759029719
C          -3.22384306455876   16.53514834124644    2.07942614294322
N          -3.41759509880559   17.64276600905833    2.30328773250948
C          -2.40885828215257   14.41349642089942    2.83529886923343
N          -1.93661999948718   13.79731623636995    3.67874087303527
C          -4.39383704350022   16.56204945556900   -0.90020430368977
C          -4.90683917621066   16.58540827975575   -2.18615331008055
S          -4.83560555081505   14.99999320498128   -2.95518973647752
C          -5.45602216745241   17.67104020869298   -2.92593725770280
C          -5.79367411494228   17.51531609387684   -4.25375776523528
C          -6.34002563956999   18.48969438599033   -5.07298414671441
C          -6.60106427369690   19.83160157682952   -4.54691130662153
C          -6.34494295822965   20.20860054495552   -3.27153998244761
S          -5.68331644992816   19.17788688878029   -2.07252726594986
C          -7.13041374773760   20.57519199296992   -5.63807051915977
C          -7.18881225913241   19.76638419631941   -6.77168972301527
C          -7.70231595101779   20.45629812921800   -7.89005700640525
C          -8.01329793124012   21.74365637534889   -7.58124789468227
S          -7.69865220730745   22.16915586351783   -5.93477926526082
C          -6.69892735340728   18.44539699088156   -6.44693544472999
C          -6.59851801143790   17.42699861237719   -7.40460555741513
C          -6.17280512053759   16.12605114745124   -7.25867567772696
C          -6.06207301190973   15.26491140961226   -8.34939348286626
C          -5.55177788521906   13.98103142446986   -8.39868219350700
C          -5.89524448430436   13.14428439065416   -9.56769613460241
O          -6.48437338159946   13.48904166809253  -10.56824626252472
C          -5.38952001503354   11.78758941039466   -9.24764020180782
C          -4.74348756963024   11.81719616849523   -7.99881261231170
C          -4.10632736003952   10.67681086744111   -7.53025252016828
C          -4.11515174982503    9.52419935733042   -8.31484523670254
C          -4.79406680401201    9.50290815766827   -9.54429690191792
C          -5.44668701502928   10.64599626887630  -10.01430219031479
C          -4.85688656518198    8.32827232965768  -10.33573720440833
N          -5.01138234757908    7.42150051927297  -11.01816830989569
C          -3.26658038398065    8.33101330983076   -7.97531065178308
O          -2.72350313545917    7.70192794965051   -8.84087952545512
O          -3.09422471380960    8.02670900349632   -6.69059924522908
C          -4.78614960456290   13.19138396170966   -7.47991497665807
C          -4.05307523939573   13.62154666617214   -6.39113656621958
C          -3.71578528138460   14.95988884558618   -6.12217916473994
N          -3.34412889640930   16.01801237845075   -5.86858838420107
C          -3.49367174706685   12.76270541987700   -5.43097353248936
N          -3.08759702864682   12.11986747268190   -4.56762144320086
H           0.55407414782256   -2.68480480650548    2.01693908524539
H           0.75262265089992   -0.71185033644258   -2.56086501885511
H           0.78182411899722   -2.94015331512150   -3.51504418030362
H           0.76334609063054   -5.38759856116685   -3.24053126906522
H           0.67449233214555   -6.38486633509623   -0.99006860414724
H           0.60232985758001   -4.94204469900982    1.00503112895186
H           0.07837345436392    2.50142528226680    2.80353211380590
H          -1.21623296588050    3.17419788675867   -0.78309955495433
H          -3.06057388542510    8.91579507760384   -2.04132080037313
H          -2.24152146470043   11.89450688098051    1.68178292501203
H          -4.35175878497000   17.43495631616666   -0.27344346558933
H          -5.57623350372809   16.54910783711524   -4.67513491640610
H          -6.54337937466095   21.20734753418714   -2.91567165294159
H          -7.83801340898008   20.03552251872408   -8.86958206217629
H          -8.41875361700289   22.49375907017654   -8.23173028232467
H          -6.86344425666564   17.73078795517077   -8.41153326286765
H          -5.93130452926362   15.73584051365435   -6.28628518006829
H          -6.48159078611993   15.60164315722399   -9.29306328328401
H          -3.56549754199423   10.68446333548213   -6.59542283834661
H          -5.95503419930498   10.64383361291791  -10.96642431550429
H          -3.64311097421086    8.50835976200391   -6.05355804750994
