151
 SCF done       -281.899195877631          0.000515171320
C           2.17440792511234    1.16457516040858    3.05672950078449
C           2.71955118276783    0.61902131997182    1.92365360389005
C           3.23076501540147   -0.69472015591939    1.84998460282681
N           3.66290255743918   -1.74941807830166    1.71188492243010
C           2.89497444018009    1.25922953931182    0.67803104290623
N           3.09449918356148    1.69231664842181   -0.36735366975333
C           2.08340415320971    0.48466803852075    4.34357784858773
C           1.59513606693415    1.41004972353134    5.30667308732445
C           1.41172489174869    1.06765467254898    6.61531416428890
C           1.70649435349813   -0.25020712833361    7.02862596577472
C           2.18686848620914   -1.18785354082048    6.06947974172650
C           2.37207232814592   -0.80017671656180    4.72246384858144
C           2.47276144676829   -2.50253480724801    6.49079665858099
C           2.29448324906797   -2.87411089109555    7.79556805462085
C           1.82235429087010   -1.94941962154771    8.73909528449950
C           1.53473730496719   -0.66526763917445    8.36374835469404
C           1.33830462580556    2.70760354092439    4.66216756457552
O           0.96260322528489    3.71159154183791    5.23298440459111
C           1.63732041625031    2.51060576321362    3.22065385923833
C           1.40448733141521    3.35549034596366    2.17213863437314
C           0.86768664288148    4.66227135231065    2.11867656409551
C           0.45380974074530    5.53692692656919    3.09280888413827
C          -0.04753468445574    6.75235252262599    2.59158212863458
C          -0.55273628161126    7.84390615639042    3.33662776754114
C          -0.46618811726933    7.86073074121899    4.77969867650704
C           0.56290353825935    7.41891294619998    5.56434689973831
C           0.30926926484572    7.58974370023983    6.94077592041635
C          -0.90186978136932    8.15205845714636    7.22724041005015
S          -1.75787884150627    8.49583669003782    5.76397328611304
C          -1.49330801338594    8.46271952279908    8.55257466357768
Cl          1.44378950273316    7.12485248409930    8.14734859736499
C          -1.12685273288319    8.87359671559720    2.60369639473445
C          -1.14823759172333    8.90410030895238    1.18502249225873
C          -0.54901948064241    7.86491910872627    0.44246053170756
C          -0.04829087916211    6.79098809370972    1.17094132210261
S           0.65062196678266    5.34819806383979    0.50695779015737
C          -0.46175260690701    7.93539852310932   -1.00133347615309
C          -0.17289365426498    9.03021911700584   -1.76602391067795
C          -0.16122116827913    8.74136369734241   -3.14741421356633
C          -0.44101050158767    7.44161639306013   -3.45494101995680
S          -0.72098917903681    6.53592290640951   -2.00642950694284
C          -0.51021729078889    6.79311820627348   -4.78835846233167
Cl          0.18116439606472    9.94467553587660   -4.33308602524380
C          -1.84973378570344   10.02946771437208    0.69291093812473
C          -2.32401222142018   10.85290290462924    1.67628944042649
S          -1.90256064234388   10.28070260391236    3.27478637166704
C          -3.12641251584175   12.02141036919799    1.53375919657141
C          -3.63053456207322   12.57831883472181    0.37899317948516
C          -4.44355777879581   13.69911852256647    0.59959463019432
C          -5.09212333900711   14.47206015128184   -0.47036108782640
C          -5.96698360454557   13.83201933236582   -1.33850599379815
C          -6.65707226678416   14.58032800285475   -2.28757285900493
C          -6.45483694885347   15.95259468342784   -2.36313563916384
C          -5.56364373675808   16.58933773186759   -1.50535954467737
C          -4.86875535598766   15.84168394329735   -0.56172048389574
O          -5.46280921547240   17.93504082876402   -1.65483865840198
C          -4.66939183687152   18.65447682944170   -0.74230364440809
O          -7.56889278792644   14.07069618227587   -3.16213667546771
C          -7.84864186030261   12.69154309075771   -3.11715397448178
C          -4.57385558982896   13.99789334218180    1.94942885616686
S          -3.65579311508632   12.90310069576780    2.93285331247233
C          -5.41277954990334   14.98539237795941    2.54653475739474
C          -6.49560416715302   15.58850052718150    1.97598854438579
C          -7.14404112562137   16.52213208029885    2.81206889924787
C          -8.22464554773738   17.35883424429823    2.47589028848171
C          -8.81770827584869   17.36989362915535    1.15290174374152
C          -9.22853575910026   18.46195194467889    0.44353930973987
C          -9.76191135241017   18.12621310463501   -0.81928314909782
C          -9.78606496624257   16.78936078115358   -1.08926925617254
S          -9.12137177686987   15.91091646669194    0.24439586953548
C         -10.27530572585689   16.08766601927373   -2.30175325586829
Cl        -10.32903973853478   19.31987561915738   -1.92002527574685
C          -8.68265334994431   18.21160152314943    3.47746461980205
C          -8.08939146917562   18.27083168192432    4.76720270153058
C          -6.95894945274099   17.47498143951845    5.08327173105635
C          -6.53044747587019   16.60538554473144    4.09000481126776
S          -5.15988329892177   15.52818226222092    4.19346650987490
C          -6.27545645809393   17.56431286614241    6.35432657462207
C          -5.67181059672814   16.56036128201461    7.05932620659754
C          -5.04528548534448   17.01970884865019    8.23648779010823
C          -5.14443108338389   18.36553997694534    8.44419731896444
S          -6.04393893914136   19.09513912544163    7.15997929324778
C          -4.60756196279149   19.17961710968421    9.56283508654343
Cl         -4.22497217392163   15.95581929295366    9.31333360669170
C          -8.80322132926173   19.13490067410123    5.61023353560731
C          -9.90066604302267   19.73181987448619    5.01694064263896
S         -10.07445144921914   19.24651619560357    3.34449434309535
C         -10.74331737340739   20.59914300964703    5.74421555840679
C         -11.89859950855965   21.22848734697282    5.37796431156172
C         -12.71863564645960   22.06039573546382    6.24282292919076
C         -12.42089337724786   22.48241921799124    7.51303002842145
C         -13.26909829306765   23.29673803373949    8.29282569373822
N         -13.90982712808029   23.95478564529236    8.98173372209146
C         -11.23932062383642   22.19378417699879    8.22707009159685
N         -10.31044563486773   22.01476103500978    8.87940553819063
C         -13.93270639627668   22.39719438674579    5.50687297005314
C         -13.83922952664200   21.84415816193994    4.19773024756781
C         -12.56303513221796   21.12555815641466    4.06462211840369
O         -12.15029540422760   20.56329661070215    3.06867927199771
C         -14.83430901256364   21.99209696912949    3.27545546615021
C         -15.99927995383823   22.70842169151530    3.62996033028028
C         -16.10458448727071   23.26137792219327    4.93874020102188
C         -15.05305517160993   23.09709900212110    5.86976228098953
C         -17.27435738210603   23.96786979097302    5.28465300524031
C         -18.29244116669234   24.12070876964669    4.38312757437293
C         -18.18737495139366   23.57603867666066    3.09468743508362
C         -17.06468175251326   22.88569637866779    2.72576965220014
H           1.04340239968147    1.79404707064957    7.32458623477860
H           2.73420407597917   -1.53661144773718    4.02331277449646
H           2.83726620549339   -3.21076615143758    5.76122172374505
H           2.51669475100545   -3.88338493079500    8.10825623915896
H           1.68759398924124   -2.25981907382594    9.76449473763650
H           1.17077480792105    0.05156859893394    9.08529935213018
H           1.64360271540369    2.96773871887792    1.18873683679804
H           0.47980364936290    5.28709358147804    4.13647996511120
H           1.48624710374555    7.02296504893787    5.18521224935304
H          -2.35941225277210    7.82914340394603    8.74416936987578
H          -1.82221593555314    9.50004313837641    8.59116621067217
H          -0.75496609996754    8.29232457337983    9.33215818510701
H           0.07071178698185    9.99694811268032   -1.36569695779684
H          -1.48743052029441    6.33770175220954   -4.94436266191328
H           0.24119834973913    6.00831052542500   -4.86999460004293
H          -0.33482491763968    7.53206253731505   -5.56623695696593
H          -2.02960861373520   10.20021103848580   -0.35169282043949
H          -3.41579317902399   12.19741640798433   -0.60290066521407
H          -6.12093533801479   12.77042418149682   -1.23412592234452
H          -6.99841107234696   16.53625216555535   -3.08685413575969
H          -4.17698020358192   16.30171382615480    0.12471787347525
H          -4.78032215890887   19.70167506537601   -1.01843362190227
H          -3.61411397715259   18.37256359489086   -0.81434003540057
H          -5.01569556683395   18.51242618292189    0.28706029322594
H          -8.59665498013824   12.51838614406396   -3.88919243997795
H          -8.25651556279973   12.39778167917873   -2.14468489809138
H          -6.95920964709618   12.09332301935480   -3.33665284129304
H          -6.82822622327481   15.35654703383713    0.98494385668018
H          -9.13223417178556   19.47498106763281    0.78670847357530
H         -11.08286920467502   15.40124679405456   -2.04753716449585
H          -9.47329859531644   15.50961367374812   -2.76000788854494
H         -10.64376887270701   16.81568221551339   -3.02016455006159
H          -5.69945924290541   15.52346230950786    6.78120989907737
H          -4.16766559653915   18.52710635568351   10.31289619946735
H          -5.39997511748487   19.76895585024893   10.02209539250813
H          -3.84325176488082   19.86903764474161    9.20402781610352
H          -8.55667204999354   19.31104143014257    6.64148555529612
H         -10.40622813899329   20.74752969972430    6.76322286427800
H         -14.73552981515169   21.56306391904743    2.28936544742799
H         -15.16670746361536   23.52639781732390    6.85229146697858
H         -17.35056588460790   24.38575790078233    6.27778223532275
H         -19.18509996762387   24.66214347882419    4.65839567613136
H         -19.00049411391652   23.70571059544832    2.39616307400934
H         -16.97775266736264   22.46381658836046    1.73514593162800
