111
 SCF done       -211.646557529517          0.000519133981
C          -2.93427016419691    2.65434877925290    4.30900430973479
C          -4.09578967940852    3.29634258866952    3.96214212062001
C          -5.04004786502597    3.76760609443596    4.89516540657693
N          -5.83016381647646    4.18847820770624    5.61398482036103
C          -4.51533131081712    3.47335219697993    2.62839220124058
N          -4.90540277218986    3.59893300043226    1.55561833443396
C          -2.60462501091258    2.17858430231413    5.64759250403650
C          -1.64419472438929    1.13120740201604    5.52965086918607
C          -1.18284970495805    0.45718671800318    6.62313767953147
C          -1.66128350847205    0.81278121036799    7.90484028433906
C          -2.60776621565463    1.87065820862326    8.02979428778404
C          -3.07321245161190    2.54769752519054    6.87906014104640
C          -3.07251789403033    2.21817772759973    9.31434182352214
C          -2.62872820854709    1.55128781215001   10.42365367765921
C          -1.69821102812149    0.50887973689942   10.29982922773981
C          -1.22496193786621    0.14763323743500    9.06752150343455
C          -1.28405375070496    0.95664710926436    4.11026252378862
O          -0.54243319879855    0.13568372529239    3.62157276622154
C          -1.98192450354066    2.06261807400714    3.39426248278795
C          -1.60163465533954    2.39204127730741    2.12993374850315
C          -1.80016654898806    3.60223936233001    1.42610301860926
C          -1.73570469069766    3.76762930688059    0.05176971067904
C          -1.95779347106893    5.08546674159024   -0.33424089281797
C          -2.14441062793850    5.95069836729753    0.76399832728386
S          -2.07190603840472    5.13685791706348    2.25608759985782
C          -2.36521791884145    7.25850676475582    0.27778183715187
C          -2.33931263878553    7.22706627731226   -1.12750403911999
C          -2.07080862310253    5.85997609420868   -1.55677203423684
C          -1.94962957514176    5.41081544221624   -2.83833193571181
C          -2.08227209594669    6.27094563106709   -3.94908386762899
N          -2.18290650989011    6.96688163674576   -4.85457902607374
C          -1.67018555916454    4.06062755285941   -3.13975883857904
N          -1.43105047307644    2.96805858459032   -3.39099066250898
C          -2.58103843455974    8.47083679123005   -1.70428425624948
C          -2.78334671003356    9.45520189358704   -0.74968089510708
S          -2.67159275685489    8.82665668554018    0.88733039172961
C          -3.07254181360287   10.82309730930939   -0.96530114927596
C          -3.18974685762675   11.82131648439296   -0.00862287705148
C          -3.50387257191663   13.04977208181624   -0.56761689787169
C          -3.63744179397872   12.99428304028769   -1.95736224568130
S          -3.35790177256901   11.42395160577017   -2.58816208250859
C          -3.98202140407244   14.27683390128171   -2.43722386083653
C          -4.05967875848321   15.16037115209293   -1.35761623656827
C          -3.75255603342573   14.45051104585994   -0.06030054810452
C          -2.50266023000079   15.02910193272868    0.60921399354076
C          -4.94849805351512   14.49413568573717    0.89472960044191
C          -4.40824401700721   16.44603630545864   -1.73948754129399
C          -4.60868058205767   16.55152297484057   -3.10848176124543
S          -4.34781927201007   15.02702273043772   -3.93568252618670
C          -4.99348601498563   17.70324600470238   -3.83428703367000
C          -5.28196749874446   17.79560795373006   -5.18652586338695
C          -5.64743019309160   19.08770215250930   -5.55542064031587
C          -5.62916184384257   19.99196430881885   -4.47855797672681
S          -5.16909852383879   19.24491706289717   -3.00970710831336
C          -6.01009856727083   21.26801796209073   -4.94861286563014
C          -6.28500871204772   21.17372763320229   -6.33296231051068
C          -6.05146215133505   19.80433321856064   -6.75859127089380
C          -6.16511938532141   19.29103781702333   -8.01615845136636
C          -6.51840027805848   20.07105065146053   -9.13925319544414
N          -6.77870140870684   20.67812868717203  -10.07576712922887
C          -5.91169052959346   17.92957807607099   -8.28962001629079
N          -5.70877568548375   16.82341870269332   -8.51292545455854
C          -6.69636939217444   22.37635572376015   -6.89069811444127
C          -6.73337699081785   23.40366276690947   -5.95587802897616
S          -6.22873778893424   22.84329291690820   -4.35189591894004
C          -7.02616687155696   24.77638058830638   -6.06638837407005
C          -7.63144752041754   25.47282986692572   -7.07702680971405
C          -7.76351993006776   26.91885860458295   -7.09933077004439
C          -7.06632920450596   27.81612515419400   -6.33037102737410
C          -7.22391154478805   29.21524345233066   -6.41336671739506
N          -7.30757917302203   30.36039348154616   -6.42320113640902
C          -6.07323455971401   27.48766322277990   -5.38445196374971
N          -5.23938597748043   27.30549515114769   -4.61522085792851
C          -8.70580246964272   27.26706568625013   -8.15516830320488
C          -9.08935087876896   26.07244769336533   -8.82705417548936
C          -8.41613301000470   24.91755798495655   -8.20856840252140
O          -8.54082241506345   23.75690679898581   -8.53873722094071
C          -9.96254487690147   26.08097951928695   -9.87596301380726
C         -10.50528700093571   27.31172776248751  -10.30864019398388
C         -10.13235589922477   28.51188208885328   -9.63725778620588
C          -9.22430518948362   28.47045241116080   -8.55415498581996
C         -10.68379134687653   29.73346564892009  -10.07410882360371
C         -11.56048035855053   29.77013099728079  -11.12416242045870
C         -11.92646031225003   28.58794216902224  -11.78479867137576
C         -11.40966563934312   27.38495656811000  -11.38606146210365
H          -0.46311788506538   -0.34031430956245    6.51317063547353
H          -3.78391091873411    3.35050421161985    7.00025271838195
H          -3.79195083555426    3.01891244611282    9.40382924826374
H          -2.99332971776348    1.82282666625715   11.40301099461537
H          -1.35842094337205   -0.00664836095422   11.18559970833240
H          -0.50863466039716   -0.65452125185872    8.96632548152765
H          -1.00139941714881    1.64664874420732    1.61610301865714
H          -1.57282970464286    2.94435975361556   -0.62017750058740
H          -2.61396709528066    8.67300299379745   -2.75978084598111
H          -3.04634069988423   11.63087506564614    1.04003740503475
H          -1.65741759806970   14.99638968770811   -0.07441556384326
H          -2.25552333355704   14.45377846188137    1.49772039319268
H          -2.67872377250957   16.06231785940730    0.89728509142759
H          -5.83238386061737   14.08186009323513    0.41352649188247
H          -5.15612136020057   15.52062045981314    1.18582553463201
H          -4.73401091304305   13.91233111144730    1.78746168418680
H          -4.52620180905828   17.28387569748443   -1.07564023868774
H          -5.22797128975456   16.94987554953977   -5.84816547364282
H          -6.96759770898847   22.52057151308421   -7.92025890851992
H          -6.73361416245418   25.34927417650486   -5.19352447161649
H         -10.23398085303764   25.15979685872518  -10.36989413549281
H          -8.96710582884070   29.39543760828726   -8.06294342051835
H         -10.39772113289376   30.64121311599827   -9.56317298065559
H         -11.97669955259400   30.71104065678688  -11.45173995739245
H         -12.61993803995679   28.63512264110439  -12.61110699632659
H         -11.68746953016391   26.47126582752274  -11.89092443461370
