137
 SCF done       -223.529803882461          0.000698561255
C          -2.43197990585949    0.71300309322721   -1.88661106189351
C          -2.90834400117247    1.50585321296521   -0.87751140712173
C          -2.15525617826530    1.85339788985827    0.26344847930292
N          -1.57630580639045    2.17648435167965    1.20067832536793
C          -4.22801766283119    2.00050112598579   -0.81025021835963
N          -5.29809498132887    2.38876096366175   -0.66539283235301
C          -1.16189660137190   -0.00425542350984   -1.86513289405709
C          -1.23287134944581   -1.08088031561504   -2.79718579350345
C          -0.19561122945938   -1.95223578301316   -2.96578650468135
C           0.98362126448209   -1.77524935091567   -2.20764502515555
C           1.06864811704565   -0.68793460944413   -1.29047904314814
C          -0.02421102965794    0.19423959227681   -1.12987577843369
C           2.25525833656251   -0.51637470263173   -0.54887719039757
C           3.30662714093842   -1.37852581293566   -0.70084613216483
C           3.22118117991975   -2.45032180286383   -1.60211227365517
C           2.08464379878044   -2.64447939868832   -2.33901092612228
C          -2.53240279994127   -1.03943913703403   -3.49169899104364
O          -2.97170556877822   -1.82061216380547   -4.30367810136395
C          -3.18229919902439    0.22262796557517   -3.02969238351626
C          -4.21441507279093    0.74204818957940   -3.73404552979915
C          -4.74176084234754    2.08148149237713   -3.68645016713406
C          -3.90485689067247    3.17643171443562   -3.41840513317019
C          -4.43747579903751    4.43971057260241   -3.35210859165647
C          -5.80988814372429    4.63348353467359   -3.59615513108187
C          -6.63911761705546    3.56346690004356   -3.90197992042172
C          -6.09889546159673    2.29625138589002   -3.95385947494679
C          -6.10323650431847    6.04353805363734   -3.48123356652279
C          -4.91701107294477    6.72388693075398   -3.15300545565586
C          -3.74872722700633    5.76140803173737   -3.07303693181794
C          -3.15610779440198    5.82360240727534   -1.64843150099801
C          -1.85834726187105    5.05908398802572   -1.42108918148385
C          -2.71805047880934    6.00752935197591   -4.19540134770531
C          -2.02129494790045    7.36208910950854   -4.16799001915798
C          -4.94077806763988    8.07649384006348   -2.91257282983955
C          -6.14262330587315    8.78744955378774   -3.05510337121856
C          -7.30635598772786    8.09720096484576   -3.42325924110357
C          -7.30028219409117    6.73257492529213   -3.62168137379389
C          -6.22409778521105   10.21032635337054   -2.83028814095955
C          -5.23228969703710   10.99786213772063   -2.37121725406197
C          -5.38843265698248   12.39862653451367   -2.15331835087172
C          -4.49459047973177   13.32225325951849   -1.61164134252757
C          -3.10393508235233   13.03749521414631   -1.23609486727974
O          -2.66278708327868   11.92027270564861   -1.14767330620567
O          -2.30856637657205   14.10053334925588   -1.02312591749383
C          -5.23181127848368   14.54704670282758   -1.64075781287911
N          -6.41557880290804   14.34869473559649   -2.16380427441445
O          -6.52116764384859   13.03600340032096   -2.47932969813390
C          -4.86034495842467   15.87401427725451   -1.14934275224517
C          -5.08649178044057   16.99241322704450   -1.95441979906981
C          -4.77216105072291   18.23831091868108   -1.46348183338722
C          -4.25023784719270   18.38465359471108   -0.16659263565815
C          -4.03438818168657   17.27668316120868    0.63790689338503
C          -4.33860545685119   16.02284946495345    0.13856929827642
C          -4.04936021693255   19.79598495848632    0.09103016648147
C          -4.43876372651742   20.51743645492493   -1.05099957200228
C          -4.92109720814433   19.58211991920141   -2.13474186646980
C          -4.03887632774297   19.67854332999886   -3.39432167915162
C          -2.56367851068653   19.42383250464842   -3.10828129985496
C          -6.38825797487964   19.86327332843947   -2.50989516009275
C          -7.33295464921678   19.77086874837961   -1.31775146086355
C          -4.35619570298956   21.88697633644393   -1.06880097566382
C          -3.89694236854819   22.57411523013721    0.06922481333026
C          -3.51100327810062   21.83651615222619    1.20007626522039
C          -3.57927371162923   20.45927834692316    1.21635075353135
C          -3.84897815061135   24.01029928598856    0.02818321998141
C          -3.58093574656356   24.84040177913483    1.06594416008985
C          -3.58236239968774   26.24609706804868    0.90417075795985
C          -3.36797196629309   27.14930741326939    1.90617832986883
C          -3.37306902238338   28.59580820032702    1.78603299977288
C          -3.49956609349777   29.32882601210259    0.63363646329280
C          -3.48682896352508   30.73858151316778    0.58661701135052
N          -3.48471062313573   31.88126606083679    0.47359996712196
C          -3.64781478738576   28.80346664128454   -0.66646731897403
N          -3.76935130637137   28.46140169724708   -1.75660657776299
C          -3.19850607888219   29.15361973147087    3.12306517389593
C          -3.04949217426633   28.08172462027813    4.04828347301434
C          -3.12963185083463   26.79814276987683    3.32960697857619
O          -3.02532735678959   25.69117369013759    3.81803122300931
C          -2.87265716432552   28.29906465664686    5.38401224223522
C          -2.83912747214883   29.62593454195628    5.86798169846879
C          -2.98885510181228   30.70476663213026    4.94979811524017
C          -3.16795428410232   30.44801673189937    3.57112335830741
C          -2.95701345046674   32.02513688998614    5.44302672856789
C          -2.78652247206504   32.26979576587256    6.77839319627312
C          -2.63964189364045   31.20649644633653    7.68166076683681
C          -2.66485772470369   29.91279317873055    7.23603292449789
H          -0.27232667483733   -2.76664086567059   -3.67079357835888
H           0.06938384847224    1.01505402562954   -0.43576939691331
H           2.31468676614464    0.30807529380287    0.14642575235851
H           4.21039802371864   -1.23993796967294   -0.12659833369396
H           4.06052363461764   -3.12098050315576   -1.70966060775443
H           2.01317310862794   -3.46778621371144   -3.03466723547314
H          -4.65882070057828    0.07247592072712   -4.46429539973910
H          -2.84476090368615    3.00566665774130   -3.30479024687081
H          -7.68898229437723    3.71976981941155   -4.09718698856068
H          -6.72887335197461    1.44647933206577   -4.17091323237393
H          -3.91780168632669    5.44040164798338   -0.96385757431813
H          -2.98798180008476    6.87110755508783   -1.39347435600694
H          -1.97406285144174    4.00257885883978   -1.64350374347172
H          -1.57195681444487    5.14494077246892   -0.37499142557351
H          -1.04833009097313    5.45604830770839   -2.02716394607572
H          -3.23828619270189    5.89926598611969   -5.15155647059463
H          -1.96923918629329    5.21544988584022   -4.14378851777137
H          -2.71925202721410    8.16281585354312   -4.39526026432503
H          -1.23663088234474    7.37845057302308   -4.92186018068324
H          -1.56565701669405    7.55711396371243   -3.20136459865004
H          -4.04833888194590    8.59974550330780   -2.61201186125109
H          -8.22814699235577    8.65005134340634   -3.53382925098469
H          -8.20963298989464    6.21007587126198   -3.87715321009266
H          -7.18301351565072   10.66754265921313   -3.04201244531628
H          -4.25593743769974   10.62204946149806   -2.10853911352355
H          -2.78076053156088   14.94515066328974   -1.09057346848971
H          -5.50635262799083   16.85659123600470   -2.93883519598217
H          -3.64600141238537   17.38418372727123    1.63873675190297
H          -4.20638424411534   15.15147386073790    0.76471241942825
H          -4.15627585427684   20.67448299294454   -3.82586431454050
H          -4.39741679509168   18.95279765245276   -4.12706701038631
H          -2.17900612501126   20.14657973948936   -2.39212166777670
H          -1.98605074015695   19.50888366697349   -4.02557343374410
H          -2.41486680034976   18.42608414740777   -2.70097119108978
H          -6.69723578398504   19.14534688772253   -3.27198280743371
H          -6.45053578261870   20.86217714154817   -2.94641477621260
H          -7.31238281152655   18.77238011407124   -0.88699285673901
H          -8.35098964390224   19.98711045112877   -1.63241885534963
H          -7.05253561668220   20.48485766983260   -0.54623387082822
H          -4.65209641990160   22.44894333040996   -1.94313681459569
H          -3.14636897966171   22.35560931669551    2.07203285783816
H          -3.27504174108566   19.90785237196916    2.09311899584742
H          -4.07159617964659   24.45680345558547   -0.93514609391679
H          -3.37287881845957   24.45662432924815    2.05206233784195
H          -3.78252745761122   26.61382916385189   -0.09436365256059
H          -2.76198445886687   27.46739582208803    6.06410883191228
H          -3.28075928322394   31.28752506098728    2.90386344213605
H          -3.07031922205013   32.84041545539452    4.74352193804703
H          -2.76408440294877   33.28465316197873    7.14641565760984
H          -2.50673601726911   31.41765807889692    8.73226457790605
H          -2.55242827385797   29.08986044759286    7.92681986277689
