107
 SCF done       -208.775914577961          0.000726892142
C          -0.44193086968122    0.81092380156111   -0.39896500495477
C           0.18399269846231    1.59737333143978   -1.33232929032834
C           0.68206281235845    1.11272254966446   -2.55963929885893
N           1.11126757518709    0.77358260114405   -3.56859866971644
C           0.49433878003665    2.95659665374254   -1.13911760884904
N           0.79309817845066    4.05888236817734   -1.01611034530052
C          -0.56486415025956   -0.64081288162725   -0.48292904924942
C          -0.79155029826238   -1.15442773571259    0.82744534059455
C          -0.91500918176871   -2.49379060081059    1.06024559691379
C          -0.82701169015128   -3.39305153956415   -0.02674408513340
C          -0.62000442249478   -2.88336481293410   -1.34125611369432
C          -0.48970725723504   -1.49127210119662   -1.55225152412212
C          -0.54309578209411   -3.79028373927408   -2.41746859949512
C          -0.66097661722100   -5.13729194096212   -2.20752580979607
C          -0.86387494355246   -5.63855572733358   -0.91316726818014
C          -0.94493900579941   -4.78522076690631    0.15377776051271
C          -0.88053642604991   -0.03319465702136    1.77876964949989
O          -1.01077764834318   -0.07753819578445    2.98110936547977
C          -0.83891043460499    1.19821708806083    0.93778312271658
C          -1.22801957486403    2.38276681397075    1.48740195117900
C          -1.64710136688753    3.55671087311163    0.82584150231720
C          -2.12084728811403    3.69826337533842   -0.47033150966405
C          -2.47155006931460    5.00865832127978   -0.76356967800206
C          -2.26349214254019    5.88959066646074    0.31855565769181
S          -1.66965572923984    5.08811401439571    1.69717739077736
C          -2.61537003831309    7.19558696672166   -0.09829960222844
C          -3.04998133188345    7.14319988396954   -1.43431871828634
C          -2.96299739973859    5.76672202783378   -1.89912025137795
C          -3.24199126992617    5.28691467905073   -3.14485199317274
C          -3.70627712290060    6.11659397997842   -4.18696329766563
N          -4.08975760619733    6.79028819264997   -5.03155658047484
C          -3.07721276100904    3.92149249426861   -3.46033955627151
N          -2.94415479867350    2.80844424820894   -3.70208445489396
C          -3.41083292473828    8.38945294590797   -1.94099373473579
C          -3.24677144764194    9.39709624069597   -1.00614873307098
S          -2.64461505230081    8.78739267902509    0.52766331232419
C          -3.49021965412495   10.78104300557195   -1.18731845385319
C          -3.21515765293793   11.80724702384861   -0.30466055710260
C          -3.55617035724829   13.04916102781339   -0.84205002131585
C          -4.10692008475560   12.96737351801242   -2.14303559622265
S          -4.19549971837716   11.34048559407025   -2.70057993131113
C          -4.37372064873223   14.27285804075855   -2.54686184093661
C          -3.97131771817586   15.11680412129895   -1.48455565781673
N          -3.49296860716495   14.35942230230613   -0.44853344013582
C          -2.94969037431152   14.85147255901495    0.78683710209124
C          -4.15135175248655   16.47380101208140   -1.75563877057008
C          -4.69765669627946   16.67175361446577   -3.00871302996283
S          -5.00091386803926   15.16994161073736   -3.87629125036174
C          -4.99710015389395   17.90723748133343   -3.63473579355201
C          -5.63148765682571   18.09825810656491   -4.84987051737087
C          -5.74245637574769   19.44886732048976   -5.17362780859547
C          -5.18065925457654   20.29737511000949   -4.20293758753508
S          -4.53098331562852   19.42531503548463   -2.88200153830985
C          -5.32085421738905   21.64127294117778   -4.62090843190301
C          -5.98740765072596   21.63887664800544   -5.87109518694144
C          -6.27384447629515   20.26560247658191   -6.25365689093215
C          -6.90097361051792   19.83002721958366   -7.38324038445991
C          -7.36854679193318   20.71734734248312   -8.37609494551396
N          -7.74701904940883   21.42982843306556   -9.19053119847966
C          -7.12150548355444   18.45992912475501   -7.63885887960534
N          -7.30530813966330   17.34653673812830   -7.84195153752113
C          -6.16880120444141   22.91410326861059   -6.36840798174800
C          -5.63315974269571   23.90023019266774   -5.53039957056684
S          -4.89499216112506   23.20188208640861   -4.08695189143337
C          -5.71483990006406   25.26320581856510   -5.84989735448167
C          -5.19820851451103   26.35831138103414   -5.20496717925140
C          -5.33734124633177   27.74010119478675   -5.62567377294986
C          -6.13478378710354   28.22679817206489   -6.62925917039276
C          -6.22718556591082   29.59228415887945   -6.97108532472294
N          -6.34712750129778   30.68527432013503   -7.30166356852831
C          -6.99261803965825   27.45955168557228   -7.44460878560102
N          -7.72254377799075   26.90913522107990   -8.14013215199674
C          -4.49539976447698   28.55127819076675   -4.75098203940174
C          -3.89590744774636   27.69830522631470   -3.78008846202055
C          -4.33804346495532   26.31772641573104   -4.01753857672041
O          -4.03572758676848   25.33502394630924   -3.35862834950653
C          -3.04927898991495   28.17436222177750   -2.82123534458340
C          -2.75364990000802   29.55579814719611   -2.78979539447487
C          -3.34751818218537   30.41658294125027   -3.75702200852470
C          -4.22288541807525   29.89290329404460   -4.73706574641389
C          -3.04480873472912   31.79246754159369   -3.71796105973232
C          -2.19544426961947   32.29600938699877   -2.77022197058450
C          -1.61025344264904   31.44737101928983   -1.81916605618810
C          -1.88389328580867   30.10625927461838   -1.82837719936748
H          -1.07938223822633   -2.86455412968246    2.06110837007393
H          -0.34764889998284   -1.12972969418891   -2.55867507645617
H          -0.38410047341934   -3.39907871542939   -3.41153809634885
H          -0.59819054233921   -5.82425783779125   -3.03813905962566
H          -0.95606377045628   -6.70421277411784   -0.76551962322806
H          -1.10147139886349   -5.16589492629667    1.15255715067921
H          -1.28624052546868    2.38992302760222    2.57151660450603
H          -2.23933695302486    2.86820048394012   -1.14275729589375
H          -3.76830016192342    8.57651762074973   -2.93757731588705
H          -2.77746433739508   11.63947233443668    0.66280798030890
H          -3.43751215510525   15.78923364147805    1.04906665946295
H          -1.87249558674949   15.02420757847093    0.70386974695223
H          -3.12953692389017   14.12427429709788    1.57764943569442
H          -3.90333984678305   17.28545463105996   -1.09579393564267
H          -5.98735296353048   17.28141178885069   -5.45150796818158
H          -6.65908098959659   23.15633885380187   -7.29482795372425
H          -6.26241433429797   25.44774871558285   -6.76648791007432
H          -2.60833883315373   27.50562141007036   -2.09684765647924
H          -4.65179827237416   30.57171659118083   -5.45664018656253
H          -3.49809731324856   32.44198781247428   -4.45234871220050
H          -1.96985351545351   33.35164612714406   -2.74883477693547
H          -0.94149864309717   31.86106122829497   -1.07921411892519
H          -1.43611947688121   29.44778732464168   -1.09833502637089
