87
 SCF done       -168.262400648582          0.000978348191
C           2.62961273986541    2.66609548923798   -0.73403131107403
C           2.96488238633051    3.97816960232100   -0.53592306939229
C           4.03900082614432    4.62201370744867   -1.18214139317832
N           4.88230774449615    5.20223763650822   -1.70223909695699
C           2.30011563138159    4.82633928188989    0.37220651814550
N           1.80893915144776    5.54702372688649    1.11862328169074
C           3.42107829193050    1.69111694423541   -1.47312522051102
C           3.01687468575141    0.38213665717214   -1.07720612715476
C           3.61121706796638   -0.73654114713527   -1.58608834065397
C           4.64576486989243   -0.59493799823863   -2.53847246379125
C           5.04263399546281    0.71020851047626   -2.95060038246458
C           4.41500519013000    1.85137305699460   -2.40057382707423
C           6.06973051590854    0.83663216090736   -3.90792282507147
C           6.67894520357060   -0.27063329859348   -4.43218678975436
C           6.28871462117230   -1.55505648957162   -4.02471883210273
C           5.29439556019536   -1.71351016712744   -3.09792261167218
C           1.90872029836101    0.48664509949114   -0.11145317451305
O           1.35081187212115   -0.40315949317261    0.48763461032160
C           1.56490895407943    1.94051938450355   -0.07049856812698
C           0.36310644969508    2.31897275043893    0.42600459493831
C          -0.34480442877492    3.55731249509437    0.26737981918411
C          -1.25091338791729    3.97938785298774    1.22500380974131
C          -1.92539606623199    5.19796348523653    1.14178546404642
C          -1.78504075700080    6.06095943913252    0.07084574653604
C          -0.92242578366568    5.63607480080602   -0.98193924393915
C          -0.20193212045717    4.38773136971348   -0.88038795238543
N           0.55107242614785    4.10318189363625   -1.93367058158309
Se          0.44811855877138    5.41028994575733   -3.09160057142665
N          -0.67308707403058    6.30746993278897   -2.09943856182354
C          -2.46421440126710    7.34741850647313    0.01438976388585
C          -2.84599415913488    7.92619504744249   -1.17976611638211
C          -3.45902119894229    9.18009547734555   -1.25680306775373
C          -3.70712535521298    9.96268300679032   -0.14693206189306
C          -3.34620132339820    9.40588546906228    1.11442985948114
C          -2.75051406472270    8.08884447882027    1.19776050948519
N          -2.48727856004507    7.69399321176092    2.43672989780034
Se         -2.97504766181714    8.93277862450782    3.56589740372506
N          -3.53855384320853    9.98653806797308    2.29231449710773
C          -4.28394708405337   11.29588452292089   -0.25326709630801
C          -3.95506975104685   12.30096920844624    0.63787915828082
C          -4.48888694237239   13.58855845133489    0.55833992950173
C          -5.42050790361384   13.94673990774113   -0.39827542274858
C          -5.74192843213699   12.96960786192276   -1.37968815111476
C          -5.18835672015884   11.63849085635191   -1.30113498936661
N          -5.60622058081464   10.82814706157806   -2.26728593768270
Se         -6.68119462521736   11.70190946547512   -3.33258157542438
N          -6.51602399898695   13.18351258955179   -2.43274589957442
C          -6.00064967093035   15.26367183884090   -0.41692913222051
C          -7.28660079603126   15.55616316141175   -0.72766447837242
C          -7.84878669190247   16.88437010625958   -0.93458983103164
C          -7.19653044327455   18.08225703903907   -0.81423218573168
C          -7.79678428809681   19.33872062771570   -1.04591388787707
N          -8.22272025768642   20.39247598529417   -1.20651007157790
C          -5.85029997945360   18.25387214597748   -0.42787374498887
N          -4.76644730174889   18.48480635473071   -0.12604234738197
C          -9.24355517275238   16.71749174556952   -1.32323196347980
C          -9.57126686288818   15.33257514546930   -1.27543421405537
C          -8.39387510742001   14.56207480480922   -0.84038077153488
O          -8.37057546199442   13.38922267831940   -0.53814144484980
C         -10.81895548048255   14.87558221865616   -1.58802059802837
C         -11.81315458821526   15.79832763608634   -1.98306124482903
C         -11.49302973370407   17.18574680032674   -2.03591339480016
C         -10.19504793801349   17.63042637368474   -1.69806823956783
C         -12.49281534657647   18.09933264536179   -2.42870182218110
C         -13.74850761991776   17.66524552186687   -2.75485152794217
C         -14.06257951488738   16.29875077335369   -2.70305169939151
C         -13.11575587814336   15.38550123663288   -2.32580953847142
H           3.29555185786493   -1.71925092521489   -1.26836725897241
H           4.72740081867676    2.82799273099750   -2.73600547901334
H           6.36882454089675    1.82775950637842   -4.21608108299703
H           7.46572685282150   -0.16289979418411   -5.16378328066931
H           6.77964833796256   -2.41808726640177   -4.44902185311112
H           4.98982573281929   -2.70016688323453   -2.78065545061699
H          -0.16154681134732    1.54905737617585    0.98510975512007
H          -1.40422263949472    3.36228790896136    2.09818237224721
H          -2.58051942655487    5.47946223731339    1.94959841056922
H          -2.66287328564212    7.39153765775868   -2.09720044237982
H          -3.72879130631116    9.55892693061177   -2.22892556120672
H          -3.25692829614616   12.08295573531221    1.42931556273337
H          -4.19869675322868   14.31784290755566    1.30065843293222
H          -5.32524414099541   16.06661302777581   -0.14923598410700
H         -11.04319730947232   13.82026565379970   -1.53905414935733
H          -9.98637708327248   18.68725860630338   -1.74610277384172
H         -12.24579047895632   19.15016434275999   -2.46647149202166
H         -14.50737890579980   18.37240462005662   -3.05455465930470
H         -15.05884905886932   15.97372640104760   -2.96337658667845
H         -13.35245532735445   14.33234594145791   -2.28348994195739
