96
 SCF done       -187.243576242080          0.000977240043
C           0.11394141649357    0.39903028550527    0.26036060108138
C          -0.21556281462015    1.02440196224236    1.43612694929260
C           0.38795319613251    0.72852087017656    2.67572704409836
N           0.83903252969492    0.51873534203501    3.70997460491221
C          -1.26096955579479    1.95899796493760    1.55777023625425
N          -2.11801309158096    2.71036178564336    1.69836458496339
C           1.03324883826502   -0.72934903483814    0.14660788760683
C           0.74442285156904   -1.42904909341710   -1.06112029585661
C           1.43122026260359   -2.55264160289360   -1.41962131850380
C           2.46704852560314   -3.02348479437405   -0.58082162171243
C           2.77671420574676   -2.31289429134476    0.61472310760347
C           2.03958499228235   -1.15861581342897    0.96776507466533
C           3.82384744053383   -2.78330218906191    1.43238922879960
C           4.52967919704872   -3.90463540023304    1.09042854737948
C           4.22144653924308   -4.60622912240700   -0.08443136788003
C           3.21199844421454   -4.17520289850385   -0.90188363245193
C          -0.32640712816914   -0.72216370382619   -1.78567032674019
O          -0.87251716981383   -1.04382872529035   -2.81695273216613
C          -0.56119368898604    0.53027609178327   -1.01155235111428
C          -1.23223337964151    1.55275422258498   -1.61544777862456
C          -1.22774153297194    2.92426225958981   -1.29390704396364
C          -0.34393877553234    3.63342666454065   -0.49157995812311
C          -0.62503544090302    4.99131293360165   -0.46745835552342
C          -1.73548740159045    5.33908096814918   -1.26782318392077
S          -2.41610445152578    3.98815742504364   -2.04761571063099
C          -1.92055036277279    6.73714247220843   -1.18579964759241
C          -0.94001313819658    7.27644781072756   -0.33164922371100
C          -0.10408049893030    6.19073626294188    0.15978383627375
C           0.93940610500639    6.26755763651699    1.03568526034859
C           1.36571651824140    7.48852631279027    1.59795213042791
N           1.71798093264613    8.48214893583566    2.04866772014450
C           1.65907804102399    5.11775292864930    1.42303186771977
N           2.24268988405863    4.17641338949663    1.72107470638461
C          -1.01318562240022    8.66196257233298   -0.21977675928370
C          -2.03880556812737    9.18960701450793   -0.99067922849253
S          -2.93665078661471    7.94493064529439   -1.84383123277990
C          -2.35586845793254   10.55720566635716   -1.17991608679601
C          -1.71288450666826   11.65717635056963   -0.63843300019501
C          -2.24056115899969   12.85731682862714   -1.11185249746820
C          -3.30457981761753   12.67169082999919   -2.01987906187008
S          -3.65403935622054   11.02020532117245   -2.27727131993572
C          -3.73314930173470   13.93368419293030   -2.48170503482647
C          -2.93782825246378   14.92385928341856   -1.87507826081286
C          -1.98203606531180   14.27800561354898   -0.98601959522376
C          -1.03412754543736   14.89306454951235   -0.21850925171078
C          -0.87168307600186   16.29333122028982   -0.21722929400230
N          -0.73768490615185   17.43283273432890   -0.22565482730546
C          -0.15287133929849   14.17127277923563    0.61244755518814
N           0.56336732308090   13.58970600660864    1.29361712323553
C          -3.24556544288173   16.21014097677207   -2.29922746716043
C          -4.27486859344450   16.22335930254192   -3.23167296804369
S          -4.87471733343316   14.60435309991101   -3.56787254051177
C          -4.81129061275650   17.34679417778242   -3.91940624175633
C          -4.28159477049406   18.61210639185981   -3.79224380080163
C          -4.72573905587383   19.73881115252787   -4.47603432166978
C          -5.92493443705178   19.67548874822581   -5.32547817550040
C          -6.60451342628084   18.54118316688686   -5.59583268510782
S          -6.17102362544143   16.99794013036072   -4.98142569849287
C          -6.15501476185890   21.01118536932603   -5.75642240082649
C          -5.16752645283902   21.84695337243805   -5.23445762186337
C          -5.33513554983848   23.18930111803788   -5.64129288998929
C          -6.42322574926180   23.33457711599887   -6.44091772835007
S          -7.28274431644207   21.85844818013958   -6.73662325907939
C          -4.24493631250782   21.06633710609622   -4.45279710387084
C          -3.09399930857102   21.62824004073392   -3.85123077114028
C          -2.00127476892336   20.96690500854868   -3.38441999893263
C          -0.89562210352370   21.62184750737814   -2.79364919315716
C          -0.66976219448475   22.97098040903504   -2.56800276180034
C           0.59093361005342   23.22297965073404   -1.93628838862851
S           0.79513309409720   24.93008196427925   -1.70104135084584
C          -0.80765464175916   25.15417957509179   -2.46442812309492
N          -1.40022383008360   24.08613380132266   -2.83619176065199
C          -1.34734123469430   26.52075728647723   -2.61975060917869
C           1.31640267056207   22.10260053038613   -1.67848792277737
S           0.47009459714251   20.69986850042513   -2.20901860757828
H           1.19215412347662   -3.07448919740381   -2.33436808832363
H           2.30052905075843   -0.63134237470228    1.87213209284378
H           4.05499832226795   -2.24118850071907    2.33748688869061
H           5.32965014459369   -4.25746731824379    1.72400639550302
H           4.78832920767988   -5.48922109624024   -0.33935648768568
H           2.97098822135773   -4.71084813218008   -1.80857005974011
H          -1.77243572824254    1.27332219944803   -2.51501374922865
H           0.49396437757079    3.17664422252996    0.00207982203358
H          -0.35472523011880    9.26558010028967    0.37683384556317
H          -0.89572083409017   11.57893859164502    0.05452456342430
H          -2.74729377639532   17.09372179603822   -1.94712341502095
H          -3.46789325110179   18.72805059392039   -3.09520017999300
H          -7.47243228798424   18.52089143259114   -6.23577122115213
H          -4.69032841539658   24.00154819595173   -5.35944940196719
H          -6.79248783727360   24.23418552917215   -6.89327708552214
H          -3.07123584546277   22.70902782346904   -3.79986568269013
H          -1.90632893139792   19.89586762398827   -3.47746409326920
H          -0.66015526807027   27.13304236950858   -3.20240055700857
H          -1.46722494430855   26.99004536675513   -1.64383934979182
H          -2.31069266969150   26.47745000214950   -3.12047269787558
H           2.27761305594534   22.00824763183561   -1.21658521967152
