118
 SCF done       -220.135139723554          0.001555507669
C           4.57816336101797    9.92662996031868   -3.05226301636592
C           4.30183199293415    9.94925391539279   -1.70964652922146
C           4.68437763786793   10.99652598669687   -0.84715003867676
N           4.95478684218685   11.82852964644586   -0.10412788222442
C           3.68994650637541    8.88282889538745   -1.01993562952263
N           3.23833625805479    8.01948402797067   -0.41147860939227
C           5.47653934557810   10.84679358880391   -3.73907293813904
C           5.95088571333990   10.21260507928610   -4.92549318295253
C           6.86852997105767   10.81255542988369   -5.73906866799439
C           7.34993135644140   12.09864231383692   -5.40506423560933
C           6.85673267004798   12.74915551049855   -4.23661455163742
C           5.91328894203579   12.10085554714482   -3.40697584457542
C           7.33573944289027   14.03726854987739   -3.92246309221794
C           8.26510079140706   14.65105437171980   -4.71742301268336
C           8.75570561100005   14.00714608290745   -5.86324975264787
C           8.30709449089697   12.75889354929335   -6.20048545709986
C           5.29966538033305    8.89907981921013   -5.07180999887535
O           5.48052199261342    8.06207051492793   -5.92553717653433
C           4.30272119395975    8.83265761431277   -3.96246652970256
C           3.32445532577237    7.89145163226594   -3.99043371490759
C           2.10243411247115    7.85588203499025   -3.27155745266413
C           1.39279578556546    6.71931483685271   -2.92751986711513
C           0.25060233739481    7.01462988565973   -2.18714751287530
C           0.05331439051084    8.39796484282682   -2.01855894498460
S           1.28348310412218    9.32563345298085   -2.74174821689147
C          -1.10558541707116    8.59660398057621   -1.22805695821732
C          -1.62496975231198    7.34292058935784   -0.87185549524698
C          -0.80327449982767    6.30627219208535   -1.48147544549507
C          -0.98915758384040    4.95846342518691   -1.40089903210998
C          -2.05817888204468    4.39060594567770   -0.67494083114279
N          -2.92939562354469    3.92087353724986   -0.09651356096513
C          -0.13463534529066    4.04067337625088   -2.04872220788369
N           0.55556923853728    3.29311135720314   -2.57670364095983
C          -2.73434748226547    7.43475848696839   -0.03309101353475
C          -3.07607096781492    8.74640847267693    0.24214436497789
S          -2.00818410907940    9.88544083870311   -0.56258698884823
C          -4.12701611339568    9.16221301805547    1.10940328539347
C          -4.65379490415348   10.41852172062967    1.30601448902924
C          -5.70440937853186   10.44629974920322    2.28067556136931
C          -5.93075131427863    9.15427391418234    2.82530153784936
S          -4.88754438793969    7.95300852137914    2.11282942824248
C          -6.86790895876814    8.86869166831856    3.80055204480520
C          -7.07840015653675    7.47036051475895    4.29673320919065
C          -8.21271005466505    6.79191605978472    3.52569108262102
C          -7.63897574074158    9.94352237174898    4.25072558096664
C          -7.43524903096472   11.22926684432926    3.69640640709093
C          -6.49354675389904   11.52015304232698    2.72209261627789
C          -6.43252544562509   12.91139420341950    2.16627503242897
C          -7.40170769062382   13.06366847179699    0.99195433814835
S          -8.52989502359468   12.39300302464120    4.40307484396682
C          -9.21943522787925   11.17060982815001    5.41150713259200
C          -8.67242506962469    9.95135210627406    5.23456819838109
C          -4.17502211037313   11.55877701435436    0.53508982559498
C          -4.58081199997529   11.91945088213902   -0.72109806325710
C          -3.91765766795865   13.06871771629976   -1.17834040297596
C          -2.98654441665719   13.55777369776307   -0.25438908864334
S          -2.92204614221808   12.61780329129128    1.17102456709691
C          -2.38590165362726   14.72933745435981   -0.79303920971723
C          -2.96122487683826   14.98343832758438   -2.05331108316587
C          -3.92328512128059   13.93147808642926   -2.34637949060936
C          -4.65910503479880   13.77274384074854   -3.48332012832297
C          -4.56338357263316   14.64972461236530   -4.58544246095403
N          -4.48610922708828   15.33760987462388   -5.49915594477074
C          -5.55132379642511   12.69121595253338   -3.64298735971957
N          -6.27257358295671   11.80880444684070   -3.76828015868730
C          -2.48238652828595   16.14470371106201   -2.64862331871867
C          -1.53357949655019   16.77929474643829   -1.86102882770566
S          -1.21696215868865   15.88727446539526   -0.36986485709925
C          -0.78392329648910   17.95208408191791   -2.10174485710655
C          -1.13476671934464   19.00838689247893   -2.89271688193101
C          -0.27767388537608   20.13650073452251   -3.20416816552005
C           1.09152056612579   20.14606182770785   -3.14057478852733
C           1.88885481421792   21.25684389100673   -3.48473517897713
N           2.59050944836434   22.12774959282565   -3.74373065516221
C           1.88059022950325   19.03538390304793   -2.77568633365626
N           2.58027205889270   18.16189496435003   -2.51798996812270
C          -1.12090291347258   21.21563708939094   -3.69880057874333
C          -2.45998554569512   20.73791352789352   -3.78225363978140
C          -2.51689659769458   19.33474940048617   -3.33699979874855
O          -3.50518790680504   18.63560560695037   -3.27728886324409
C          -3.48257273509399   21.53198550430675   -4.21495166625248
C          -3.20641662624906   22.86563540278721   -4.59155911783926
C          -1.86927306952826   23.35155899455617   -4.50896678917809
C          -0.83077783199701   22.50548574845073   -4.05640118683700
C          -1.60706857537192   24.68482308187956   -4.88423135865745
C          -2.61556305107414   25.50090460309550   -5.31963742606796
C          -3.93171106480157   25.02204708278976   -5.39916803485988
C          -4.22063452725432   23.73216903252515   -5.04412810075118
H           7.22692627221712   10.31055385701739   -6.62547887560047
H           5.55131994083274   12.61650152163540   -2.53097809400802
H           6.95747707090236   14.52790558620352   -3.03789211956719
H           8.62815829654522   15.63630581478775   -4.46663614468926
H           9.49033492523058   14.50532974904512   -6.47804226966706
H           8.68024306364980   12.25890147321813   -7.08233228085159
H           3.47974041275208    7.07768069313367   -4.69323341187033
H           1.73556416199139    5.72950646846970   -3.16918631499406
H          -3.27686540781899    6.59892140604785    0.37073140609769
H          -7.31544691938794    7.48534912946529    5.36157561813407
H          -6.15821139573010    6.89768774345526    4.16015263860595
H          -9.13988114179518    7.34872356505869    3.64245113854559
H          -8.36422634651476    5.77979809073931    3.89185604744558
H          -7.97118831048590    6.74402744095653    2.46648785999660
H          -5.42431882473805   13.16036361937952    1.84413384319034
H          -6.71710931903005   13.61492795414601    2.95253101962404
H          -7.15251407076133   12.36704982957338    0.19498772166222
H          -7.35601923174202   14.07517360011019    0.59656046778917
H          -8.42011178797375   12.86516887204934    1.31671931490159
H         -10.00822879700705   11.44824353598136    6.08339015149739
H          -8.98468411006928    9.07925492708702    5.77923078082073
H          -5.32508032734383   11.37495257605484   -1.27329869096057
H          -2.78742954519877   16.51263381310069   -3.60966334437345
H           0.14972656625050   18.01701706529338   -1.55435041871311
H          -4.48989089610916   21.14674664531016   -4.27065153166957
H           0.17003433493205   22.90319887998636   -3.99514564575641
H          -0.59191691064982   25.04859292194979   -4.82236475307851
H          -2.40438173436092   26.52050699958732   -5.60524420730237
H          -4.71554220497990   25.68022892987369   -5.74298373019455
H          -5.23213203100890   23.35786386759638   -5.10382890173052
