106
 SCF done       -221.680669689356          0.001008877512
C          -0.74963243459997    1.47098592307108   -2.04036533052100
C          -0.42759818690948    2.50993404327060   -2.87277144886482
C          -0.83102389102367    2.58467821404720   -4.22205749787184
N          -1.14924508303896    2.69908899441782   -5.31871600089183
C           0.41357470793107    3.57908871344875   -2.50082884666321
N           1.12581446810684    4.44196118740351   -2.24359484197823
C          -1.37294869058572    0.22219542388809   -2.45844425489190
C          -1.05530623244328   -0.78612492777758   -1.50078721879075
C          -1.46357433711516   -2.07914554752779   -1.66270818635064
C          -2.22771833756132   -2.42394592894616   -2.80036460555422
C          -2.56568745139608   -1.41519469290126   -3.74914117383167
C          -2.12485322384986   -0.08587001243355   -3.56005802204604
C          -3.33472096752208   -1.77123071801271   -4.87570601841042
C          -3.74702711363041   -3.06250764387718   -5.06153087733530
C          -3.41184631188655   -4.05565636622331   -4.12886873438150
C          -2.66874407870033   -3.74346808836655   -3.02283537135794
C          -0.27537553279566   -0.19010074031973   -0.40189693866418
O           0.21507426272759   -0.73876261878909    0.55604515289196
C          -0.27084068701616    1.27847617754155   -0.68286828620368
C           0.05706300610369    2.15836495433437    0.29462854720187
C          -0.23293730604006    3.55072680244473    0.33966853527814
C           0.51863897123755    4.53833601288824    0.94840320458035
C          -0.02181710317462    5.80790647101698    0.74338476319448
C          -1.23059659852893    5.77265246493453    0.02883634603266
S          -1.68468742430538    4.19590788311714   -0.41765165760143
C          -1.67187303112664    7.10337722117248   -0.18503684731115
C          -0.72790370219873    7.98192837531616    0.37155205362817
C           0.32862196014924    7.19944800769928    0.99188708596747
C           1.42278162925071    7.67146834462771    1.65346663484877
C           1.66948312777350    9.05402208686541    1.79674846722524
N           1.87622294885134   10.17621571760012    1.90572818050010
C           2.37657884832237    6.81167541139551    2.23951677416578
N           3.14820288860548    6.11774616386969    2.72621529404428
C          -1.04993789697336    9.32276108202587    0.15170885539576
C          -2.21216389907772    9.45713159315746   -0.57519457365545
S          -2.94375553138409    7.91435855882190   -0.96368153068306
C          -2.81885779220958   10.68465027391978   -1.04155630765009
C          -3.20758140678178   10.86332654440966   -2.38156719096712
C          -2.91976130115175    9.90058282102471   -3.46782631029061
O          -2.20975965209407    8.94107019677995   -3.43445988470576
S          -3.75806790851613   10.42901446519248   -4.96023056032346
C          -4.37160089863174   11.92743269660230   -4.19701709716572
O          -5.13672096493578   12.66463337091872   -4.74320250968371
C          -3.83834723417945   12.02393194661739   -2.82040661899042
C          -4.01365412958448   13.14355004579411   -1.98803319202502
C          -3.58778792594748   12.98006540096725   -0.65833266909853
C          -3.05935502123602   11.77967971457300   -0.19149377111623
C          -2.83872416857868   11.74938993726932    1.27344383537269
O          -2.56320114308986   10.81236133718679    1.95904923287394
S          -3.12229568620817   13.38925301719705    1.93935808289444
C          -3.60353713761932   14.06560090512239    0.34989966006706
O          -3.84535585105285   15.22197595400340    0.18526759274137
C          -4.58457035672424   14.37585744886644   -2.48750241568278
C          -5.63880317534754   15.09122177629935   -1.96781331863479
C          -5.95595716539189   16.19534487659886   -2.76369518894052
C          -5.11491762383292   16.31558686372604   -3.88307567673590
S          -3.94398213378490   15.08761276984771   -3.95527576311738
C          -5.52948656426066   17.42759633240015   -4.65971031144607
C          -6.64152471167531   18.01526349848920   -4.01556131401427
C          -6.93571096014275   17.26637372416860   -2.80009745283695
C          -7.93141707512784   17.50269326173848   -1.89902581650055
C          -8.83991706809522   18.57278406911149   -2.04403889505810
N          -9.58536578642909   19.43569590104972   -2.16084259675342
C          -8.12852964632729   16.67729278744498   -0.77140463010734
N          -8.29872016615985   15.99831927457041    0.13660751794497
C          -7.15203280286127   19.08132654632830   -4.73373321577618
C          -6.47078560312650   19.28884910516749   -5.93909691614867
S          -5.14703449915377   18.14797474754204   -6.15157404901778
C          -6.85935899637003   20.28798168634751   -6.85082614966929
C          -6.43551542216646   20.51895890173699   -8.13145014719816
C          -6.94930328220362   21.53816263441958   -9.03239170370663
C          -7.72094575030550   22.61893079708295   -8.69837428183464
C          -8.16904493635635   23.58251567144552   -9.62684894160696
N          -8.56617513920622   24.39493215457385  -10.33352246593066
C          -8.14280704852341   22.94592531262392   -7.39201446524571
N          -8.50566575302727   23.28250158132232   -6.35624065776249
C          -6.44500398899830   21.23586682028051  -10.36792966274765
C          -5.56077573278838   20.12225074299347  -10.27658022827470
C          -5.49021411581984   19.67802384400428   -8.88025367957439
O          -4.79360858458486   18.77996132400184   -8.43715636179561
C          -4.93238993734074   19.60259928900996  -11.37154170948356
C          -5.17197410287355   20.17952202601919  -12.63837399834185
C          -6.05866401445043   21.29034747992580  -12.74125896576586
C          -6.68886757980663   21.81075872865425  -11.58674338340801
C          -6.29564284022653   21.85285673408863  -14.01165914524853
C          -5.68821298493231   21.34354965456767  -15.12747220069171
C          -4.81586195559784   20.24994651180348  -15.02473303903796
C          -4.56228719046746   19.68069211691659  -13.80611357276525
H          -1.20444777929276   -2.83184084734348   -0.93310556433734
H          -2.40105019584212    0.66171350942346   -4.28730359730691
H          -3.58615294291825   -1.00353891374886   -5.59265014069238
H          -4.33296411451972   -3.32619837662758   -5.92913477539875
H          -3.74556091987263   -5.06946825094879   -4.29133962967652
H          -2.40794717708864   -4.50442844392385   -2.30206076749602
H           0.55682823046760    1.74186543848433    1.16389339537527
H           1.44112198139985    4.33193823253689    1.46018257873730
H          -0.45075249362084   10.15716342751944    0.46735581721739
H          -6.16926413914886   14.80171611215853   -1.07918333524650
H          -7.98939154038678   19.68782493491084   -4.43671627774903
H          -7.65141005057482   20.92271976113796   -6.47079074221847
H          -4.26635441327021   18.75822525300812  -11.27312773704785
H          -7.35808006667516   22.64869891538033  -11.70030318539948
H          -6.96748864360497   22.69512946668480  -14.08651004945636
H          -5.87743691118432   21.78101555518268  -16.09614509366829
H          -4.34620254591399   19.86036435758971  -15.91539935748785
H          -3.89180512746401   18.83819570270181  -13.72020065850265
