105
 SCF done       -209.955246363819          0.000647587197
C           0.05785706425289    0.33162978093855   -0.04134384283659
C           1.05167942074477    1.27679555728534   -0.04006626451056
C           2.24618043066456    1.15687664168344    0.70090387526548
N           3.23755178217655    1.10680988308199    1.27661457517470
C           1.04659063676030    2.42759661374126   -0.85039993431679
N           1.09496136680181    3.36588068270511   -1.51112139526421
C           0.15624523590699   -0.97583367933338    0.60035217883313
C          -0.77816096607227   -1.85699961176052   -0.01841146152314
C          -0.87856531297500   -3.16792485993073    0.34882122164485
C          -0.04601271318690   -3.66020118735931    1.37932692103090
C           0.86990633693377   -2.77663943460755    2.02057124461492
C           0.95934045184422   -1.42553528068129    1.61290980265194
C           1.68371086268068   -3.27695854063416    3.05695741394143
C           1.60325464022320   -4.58847915864726    3.43898664731308
C           0.70473866914693   -5.45884490905857    2.80412898774023
C          -0.10240733437939   -5.00459031051816    1.79657123817693
C          -1.55367485667794   -1.11213596389925   -1.02420677082994
O          -2.39920522023396   -1.53059200428942   -1.78193539664377
C          -1.12301161670014    0.30976494849015   -0.87849119309545
C          -1.89486586444202    1.28282565939279   -1.43798234084662
C          -1.92513130179305    2.66310526920480   -1.14637505146961
C          -1.45400853328776    3.32820429620517   -0.02361628592366
C          -1.67126326029110    4.69723440193034   -0.09198785685743
C          -2.32751959632897    5.09197851266824   -1.27715590644914
S          -2.68995459786834    3.76911547240950   -2.28510307984383
C          -2.46024038747677    6.49978489456387   -1.26314718657527
C          -1.88314189451869    6.99830368838528   -0.07956109534513
C          -1.36602016282166    5.87837670374364    0.69329375100799
C          -0.70434760230876    5.91822513848452    1.88523669933285
C          -0.45127216053272    7.12655599127427    2.56787781650584
N          -0.25719302989323    8.10797789962266    3.12741972767846
C          -0.23886440931062    4.73952338121360    2.50566793526212
N           0.12733443993976    3.77286114319100    3.00204725038604
C          -1.94657682328121    8.38487528359645    0.01828251637060
C          -2.57321464789341    8.95288078812322   -1.08175873395350
S          -3.08803709956092    7.74593736573029   -2.24917386838987
C          -2.79981779352090   10.33037950517401   -1.32047466576649
C          -2.38584004562912   11.39691096993524   -0.53778798800632
C          -2.76463154579713   12.62119927990869   -1.08049735008372
C          -3.48337671803929   12.49171096371530   -2.28958447314005
S          -3.68232510755114   10.85675768212534   -2.74868708337013
C          -3.81135314584890   13.77621293777188   -2.76378752313564
C          -3.29071406630046   14.73169650955436   -1.86111468519277
C          -2.63678175520676   14.03120041361804   -0.76353245370274
C          -2.06226083107875   14.59173588114568    0.33898101876153
C          -2.05688688921536   15.98705726984732    0.55474906884368
N          -2.08049043421423   17.11818435293988    0.73949365435744
C          -1.47338687312324   13.80781829825040    1.35424223450430
N          -1.00682042611233   13.17033319482326    2.18475732946412
C          -3.52524647268799   16.03827347404187   -2.24590266543316
C          -4.24241067808804   16.11978857970971   -3.44204068395220
S          -4.62753190088214   14.51276569611089   -4.07268822432035
C          -4.66960176173204   17.24577193176159   -4.15432229826233
C          -4.29998553220306   18.55603809480381   -3.93861925959643
C          -4.78733336234584   19.67763089244950   -4.65166623922141
C          -4.22380422934062   20.86555910351959   -4.28568893082625
C          -3.24840718877358   20.74037940373849   -3.27543782912389
S          -3.09347428715428   19.07715186148293   -2.77971638837946
C          -2.44989250974940   21.72110462871864   -2.70395768188814
C          -2.45989925873520   23.11125747683169   -2.93544458995229
C          -1.51945062217270   23.79011723231486   -2.21400010380733
C          -0.71777554174017   22.96605978079945   -1.39252675489718
S          -1.21426468679565   21.29672343503740   -1.54544650731670
C           0.33163787610332   23.36373062972746   -0.58483672610192
C           1.10473941119389   22.45938797169622    0.13719575868980
C           2.16288481506930   22.79477771356056    0.95670215821427
C           3.00817585268812   21.88157486938627    1.68356401239365
C           3.02419370295933   20.50934402219001    1.58671741116317
C           3.88883569657214   19.67775554400287    2.32585880377032
N           4.56542852311865   18.94837864217255    2.90001241435749
C           2.22752413026384   19.73743613638735    0.71696625635812
N           1.64092659366772   19.03739944471149    0.01953925419466
C           3.90673340841833   22.67747380789520    2.51775514569198
C           3.66441710942807   24.04957511337849    2.26358743721779
C           2.57931149690369   24.17679827010722    1.26815715991996
O           2.13286024335723   25.21441499626751    0.81869008782593
C           4.36282748926802   25.05358817356965    2.88719320537082
C           5.34686364637728   24.68728229733666    3.81222701244342
C           5.57766100992121   23.31509665318093    4.06436612199616
C           4.87253820645243   22.29867875254943    3.43000567014324
S           6.83215183559920   23.08410881740588    5.24476570627477
C           7.02701006554281   24.81152623828587    5.37995636968738
C           6.19702195080455   25.52612206183989    4.58409933443623
Br          8.30816993517197   25.50890975012129    6.55964733959808
H          -1.58543573463056   -3.82232646942353   -0.13931989767396
H           1.65289405736300   -0.77462102502938    2.12190515624847
H           2.37634960668249   -2.60363516782746    3.54001922963423
H           2.23251011921951   -4.96283767104044    4.23248269285920
H           0.65466967908264   -6.49086424214361    3.11769656393122
H          -0.79680729899301   -5.67005230855053    1.30470528705420
H          -2.62476561866784    0.92691330537230   -2.15900007523406
H          -1.01318331711821    2.82057314213206    0.81473060993999
H          -1.56232046057748    8.96035881354515    0.83985269408431
H          -1.82969340225848   11.27716600085241    0.37330811970973
H          -3.21875929382382   16.89746574145721   -1.68070825910789
H          -5.34536877456034   17.06731848849467   -4.98095544233371
H          -5.54012438050597   19.57285157741238   -5.41293493369894
H          -4.47232955890938   21.81446404402071   -4.72540654180909
H          -3.15285536475304   23.57323916616435   -3.61558019729239
H          -1.37142310650091   24.85457803537181   -2.25306220087297
H           0.56534809443719   24.41719720902049   -0.53047203609574
H           0.84537742878545   21.41188776782747    0.04057990724329
H           4.15687964309975   26.08994668484201    2.66972207782562
H           5.08574626320132   21.26808767929827    3.65891660691375
H           6.18290013756051   26.59991541614210    4.54163964036703
