104
 SCF done       -206.816369772423          0.000807037517
C           0.67298491786158    1.22414231601401    1.93699359545887
C          -0.56677376620001    1.61758165680054    2.37011908486158
C          -1.13494950841454    1.21034575307198    3.59593411819472
N          -1.64720910592959    0.90712092114086    4.57682773406168
C          -1.46301687570444    2.39066814274207    1.60790008857750
N          -2.23696084296799    2.99679383027467    1.01418065659500
C           1.51060290646833    0.23198562819215    2.60297839581522
C           2.43766239519147   -0.29236389690231    1.65485758487982
C           3.32391553370643   -1.27645194272312    1.98685712128756
C           3.33050883757083   -1.78059428952499    3.30687803970003
C           2.42191329857021   -1.24392955372727    4.26498974422768
C           1.51110015601204   -0.22896566967897    3.89176766422710
C           2.44538151284237   -1.74924059788108    5.58066982733367
C           3.31976287898065   -2.74077413710410    5.93397604279598
C           4.21214213644119   -3.27019676865575    4.98973196175788
C           4.21763395548483   -2.80029113130748    3.70435258439327
C           2.26247499456993    0.40180138453816    0.36941254868424
O           2.82696672288364    0.19718596233686   -0.68005172277997
C           1.26241103691679    1.48031466223141    0.63855438826645
C           1.13579938535506    2.48741006058098   -0.26645771288733
C           0.55515097873586    3.76559287585503   -0.09656408467986
C           0.32523978975537    4.46935853656776    1.07704493847703
C          -0.25997612115868    5.70614363128563    0.83934125331345
C          -0.47639921013527    5.95518416631938   -0.53227849195033
S           0.06887600000118    4.68023204978342   -1.51748091363434
C          -1.11281982565251    7.21163372101994   -0.66603792808726
C          -1.30680264705362    7.75461598434412    0.62503083248032
C          -0.77633528716005    6.82460007181550    1.60821648068334
C          -0.78251274887824    6.95056377072480    2.96711057436540
C          -1.31784878670561    8.08502826713597    3.61137839000404
N          -1.74801669995778    9.01458757384341    4.12670043250310
C          -0.24873333470141    5.94585042924055    3.80092714632086
N           0.19066725227256    5.12091672776164    4.46538448939098
C          -1.95394277872274    8.98150065174824    0.59710363992020
C          -2.27662205950557    9.37153374503128   -0.69926903043224
S          -1.73849493042686    8.20115561117871   -1.89888294830260
C          -2.98463998787423   10.53130305439266   -1.07916065547507
C          -3.30403043131441   11.66137761888393   -0.18745031580545
N          -4.00133250905196   12.59996281814619   -0.74622223183578
C          -4.21793257841856   12.18652416382052   -2.03140001891638
C          -3.55471759861178   10.90103110729448   -2.28128521839029
C          -3.86021409644188   10.44097495536857   -3.60847353267221
S          -3.44924858375199    8.99094265609120   -4.27911596079509
C          -4.70105181003686   11.47310422470166   -4.16176494136631
C          -4.91248651249954   12.53029628778083   -3.16206407701236
N          -5.77815518265356   13.47706585596752   -3.63150702619174
C          -6.13651925883971   13.06863493794290   -4.80943293159731
C          -5.51209720486025   11.80636409071553   -5.22848083914346
C          -5.74211667889747   11.14900339363050   -6.45816980741102
C          -4.99706278573160   10.12072198955744   -7.01576086790049
C          -5.53644665753071    9.67965608276157   -8.21720936226215
C          -6.71126000654060   10.37125448005617   -8.58012149438045
S          -7.12517235756619   11.58592842918006   -7.45614636323790
C          -7.20958348875116    9.81355904615436   -9.78033002663593
C          -6.34610436929912    8.76866247162846  -10.18218896650579
C          -5.25010608392207    8.67597062980824   -9.23075145826595
C          -4.16458017615455    7.85508583239573   -9.29062436353325
C          -3.94740752603566    6.94739557345644  -10.35160181213706
N          -3.73240596593081    6.21722066842831  -11.20818086190374
C          -3.14022453180924    7.87761775520869   -8.31756854813013
N          -2.28951355478702    7.89120851460245   -7.54969793387994
C          -6.77638770192282    8.11405890536925  -11.32760507193935
C          -7.96647221581550    8.63909513813517  -11.81508932563883
S          -8.53131173121435    9.99875037502572  -10.83337237894187
C          -8.76155209473865    8.31400029640945  -12.93479525951884
C          -8.73267216018021    7.22434459651526  -13.75892597869172
C          -9.58904968639896    7.06667156544289  -14.92559523457480
C         -10.32812888320601    8.04489102477236  -15.53946177840302
C         -11.12891037650522    7.82759034548866  -16.68111639943878
N         -11.80638364896904    7.71995178869065  -17.60154997750660
C         -10.37985593707332    9.40282178706083  -15.16011931120214
N         -10.45904733656751   10.52566980835250  -14.92975054986693
C          -9.46698523527151    5.69061370816873  -15.38956784573497
C          -8.50028304040362    5.02752634978066  -14.58281408479897
C          -7.98922314138019    5.95098429024619  -13.55881577099568
O          -7.16645921087686    5.68619032190827  -12.70852789594545
C          -8.15585423424927    3.72250656271006  -14.78793570632019
C          -8.78048173325443    3.00324023045508  -15.83058328118394
C          -9.75866504507257    3.65482966789609  -16.63668958642854
C         -10.09148203885808    5.00858514020810  -16.40084998705205
C         -10.38144836524321    2.92498112557209  -17.66967297602861
C         -10.05309875467682    1.61634851168093  -17.89839261279042
C          -9.08801081184766    0.97707539249943  -17.10575221635239
C          -8.46496230199418    1.65584576440457  -16.09375490819917
H           4.01188308963334   -1.66636193476022    1.25147724133521
H           0.84277462533550    0.16873916440825    4.63936780949433
H           1.75413835204004   -1.34065534816369    6.30292655417821
H           3.32813948807837   -3.12330836090697    6.94354180943530
H           4.89550437800394   -4.05191064861802    5.28584757431069
H           4.90274589533701   -3.20385419182657    2.97320901743617
H           1.59601191877930    2.29394066562361   -1.23108510798459
H           0.60954223450266    4.10155111348934    2.04620302275433
H          -2.20802461697492    9.56271873273337    1.46449285754190
H          -2.98814837393917   11.75064873717813    0.83668223368260
H          -6.81917145518246   13.64309952607531   -5.41188563322086
H          -4.11461283990374    9.72563737220721   -6.54597565898857
H          -6.27624501898822    7.28336161753010  -11.79079944905151
H          -9.52996966402102    9.05128706782642  -13.13766329268947
H          -7.41518270309062    3.24757158208151  -14.16186960753800
H         -10.83896371452567    5.46971516795126  -17.02640993909173
H         -11.12258447348177    3.42147603877225  -18.27866121130721
H         -10.53542388997565    1.06623718668838  -18.69236616280283
H          -8.84104505472894   -0.05574946568091  -17.30074770130128
H          -7.72121271422367    1.16961649844007  -15.47968312901795
