105
 SCF done       -204.783511248999          0.000562443504
C           0.05795676907777    2.06845274840614   -5.97958950167918
C           0.80382798096555    3.21290792372467   -6.09583114125397
C           1.17747668787848    3.78044085123374   -7.33006981781322
N           1.48929230406125    4.28626622800020   -8.31204821566990
C           1.35890338984273    3.88001683552343   -4.98546450549334
N           1.85341877668060    4.41746420507074   -4.09948557846606
C          -0.28599189962098    1.16840926157785   -7.07466357095847
C          -0.54821275072351   -0.12300292467338   -6.52938901916221
C          -0.85883908672965   -1.18683813142979   -7.32608204620330
C          -0.93596312271584   -1.00058428703008   -8.72495825235459
C          -0.69178225428726    0.29183949329911   -9.27367104029942
C          -0.36181632505080    1.37406537354696   -8.42521839257989
C          -0.78152291115306    0.46442829582082  -10.66972417585754
C          -1.09428134106759   -0.58777712829709  -11.48675890575685
C          -1.33283320576537   -1.85998207537771  -10.94596956266368
C          -1.25458796544403   -2.06204841488354   -9.59469621361146
C          -0.44389233795192   -0.06319938094670   -5.06041467014694
O          -0.54469005982864   -0.96707099613815   -4.26366362615615
C          -0.25923744827116    1.38403942953182   -4.74521507796872
C          -0.51853222792231    1.81930789333248   -3.48278755372806
C          -0.85689232087905    3.10635400717523   -3.00840928634038
C          -0.93515324141293    3.46612205564051   -1.67013782983423
C          -1.39184411598539    4.76732211513280   -1.49612669158324
C          -1.69430364147917    5.40624999452379   -2.71671478353161
S          -1.40341063678687    4.41009243248139   -4.06353994927858
C          -2.18034810222847    6.70647391275989   -2.43940739937563
C          -2.18717037834932    6.89242514991484   -1.04551720936163
C          -1.69985291161093    5.67815664210129   -0.40744730579841
C          -1.59973497289730    5.43811047431460    0.93129731582562
C          -1.99726924675997    6.39022760116090    1.89369765712377
N          -2.34292307125463    7.15292500898363    2.67707406474727
C          -1.12612787948243    4.21170701576314    1.44449497519780
N          -0.74899025738855    3.21653266705228    1.87028133320513
C          -2.65360955323960    8.14820645231514   -0.66484103289850
C          -3.01384501115296    8.91776101440846   -1.75937975348801
S          -2.75032789051552    8.08028973525619   -3.28121291218452
C          -3.54110638036990   10.23689894958636   -1.74908245922676
C          -4.07873334914682   10.92766835214404   -0.66577947878071
O          -4.20289452796142   10.38675205978251    0.58859031916383
C          -5.27698564446348    9.47309249953668    0.74591774119067
C          -4.47653823553660   12.24101793104187   -1.00276335930377
O          -5.01824540300910   13.20271743384668   -0.22730479228591
C          -5.07961215145383   13.02297439637771    1.17466269528678
C          -4.25083626837989   12.54640066376689   -2.34302990671251
S          -3.55545906660735   11.20340185986299   -3.19004965058405
C          -4.54279811519060   13.77876042428950   -2.96864734477421
C          -4.26554110962503   14.14829297329690   -4.27631186867865
C          -4.68973447011999   15.44588700152559   -4.54566896553129
C          -5.30537923303094   16.05901467706989   -3.43818562650499
S          -5.34038741000559   15.04538768938758   -2.05929906668949
C          -5.71144777412145   17.35976806426839   -3.81458955828302
C          -5.33513976809141   17.58290987714144   -5.15876487146689
C          -4.69469793836584   16.38020053564850   -5.66371591430770
C          -4.21750260946537   16.15614869117706   -6.92078445695478
C          -4.30959046745491   17.10967687438007   -7.95821699580623
N          -4.38899538153147   17.85659397940282   -8.82379184957801
C          -3.61650666316191   14.93109156756733   -7.28159428507933
N          -3.12963365947611   13.93604545916458   -7.57753159599501
C          -5.67049989807009   18.85037920596455   -5.61675467021412
C          -6.31652529801404   19.60389148928963   -4.64531693798253
S          -6.51549540081873   18.69471514908489   -3.13906560349102
C          -6.88228977584324   20.89365702687686   -4.68335633831962
C          -6.63194156691180   21.92149498079971   -5.54998816078126
C          -7.36395047301503   23.17386202452192   -5.56597016595920
C          -8.61198078241445   23.38937916255517   -5.03948385350583
C          -9.29508623288390   24.62074587080783   -5.11100231993016
N          -9.89665135585434   25.59861415992275   -5.12852386952015
C          -9.39924571386696   22.40788921070149   -4.40242316480409
N         -10.10210686881899   21.65597334449865   -3.89226251246751
C          -6.58478452054594   24.13778571734584   -6.33119319319719
C          -5.44416469346589   23.47210140137667   -6.86309589849044
C          -5.45159616417404   22.05989223430942   -6.44118152240294
O          -4.62008597024149   21.22210833989928   -6.71847859399037
C          -4.52140050130578   24.12345319010355   -7.62925865317437
C          -4.69921803133601   25.49913106050987   -7.89964191743150
C          -5.83492345211946   26.17383222515765   -7.36568438393100
C          -6.77593587594510   25.47110166913933   -6.57835209021603
C          -5.99746974069174   27.54783754916266   -7.63524033387718
C          -5.08311964206760   28.22515875665745   -8.39530077048008
C          -3.96538891381228   27.56004487484178   -8.92066110198232
C          -3.77827143190866   26.22586837652134   -8.67928349445521
H          -1.04471687961687   -2.15953647414365   -6.89548545761573
H          -0.18948004617778    2.34500096734756   -8.86339082132069
H          -0.59360970681497    1.44494337586586  -11.08189621895327
H          -1.15907982491540   -0.44549865048303  -12.55505695747359
H          -1.57902486152306   -2.67897263334420  -11.60507818138432
H          -1.43709248638097   -3.03941844259352   -9.17246637408380
H          -0.56941036289379    1.03378002500758   -2.73358128141257
H          -0.64961362994041    2.79893045818051   -0.87687305182941
H          -2.70741129594204    8.51116604851219    0.34473310189411
H          -6.24224855398454    9.97935535329774    0.63691173347219
H          -5.18105593382126    9.07569387871247    1.75410116640162
H          -5.22140945729980    8.65567843301983    0.02192292887293
H          -5.33744280878791   14.00117547230422    1.57751430312148
H          -4.12044690586372   12.69338158393777    1.57682799666052
H          -5.85434191148513   12.30300406235698    1.44868106818654
H          -3.77673277098700   13.48932101145938   -4.97108205924578
H          -5.46769709275511   19.22362834267296   -6.60303905347615
H          -7.59020173570045   21.08646711553441   -3.88485024872040
H          -3.66569324169954   23.59567835529377   -8.02343371303912
H          -7.62146474087519   26.01025618439028   -6.18128804367873
H          -6.86062929824565   28.05498013549030   -7.22958884435116
H          -5.21633744237761   29.27773006939031   -8.59573651145507
H          -3.25308543571675   28.11011297658468   -9.51727017579048
H          -2.91956538652351   25.70846189030292   -9.08143478713075
