108
 SCF done       -192.381586686891          0.000891598448
C           4.38231875420311   12.04976764646527   11.52544313928714
C           3.13932941519467   12.63638336316961   11.63406933600251
C           2.72157333579395   13.38807009044490   12.74758919480294
N           2.33012412949331   14.02999998947560   13.61668064375729
C           2.09699079871199   12.47215274956872   10.70348909023308
N           1.19519453542021   12.34206696007016   10.00305028884989
C           5.37173391751928   11.98617006560991   12.60395268291409
C           6.34649056819186   11.00405616577526   12.26350178009490
C           7.39315166784186   10.71128116600092   13.08690839133932
C           7.52551865335633   11.41141296917907   14.30845888020212
C           6.56353682235938   12.40399909599693   14.64947430870521
C           5.48099506131595   12.67749784148315   13.77842391433846
C           6.71346647471161   13.10414805107270   15.86275814786298
C           7.76240344886567   12.83798904699511   16.70108729848502
C           8.70875820100900   11.85982060926308   16.36443018104563
C           8.59179692695625   11.16077186131117   15.19335978137915
C           6.03019082015363   10.45777730131522   10.93101955231176
O           6.61453514598494    9.58195934598116   10.32727185231379
C           4.87455375179854   11.24907580706322   10.44452374819374
C           4.58754151761105   11.20734936169139    9.09081139884343
C           3.88258945629240   12.11282349630368    8.31850162061775
C           3.81062187065635   12.02355377073826    6.93081269024307
C           3.24036630122144   12.95223333619965    6.04897262333802
C           3.44349673696448   12.65722670468443    4.71975215712920
C           4.16363390822137   11.47744598045477    4.51544762281588
S           4.55354618073644   10.72114250913155    6.03373642523118
C           4.65813366222640   10.95271725850358    3.30851906096316
C           4.70150894249284   11.55655548739833    2.05438218535656
C           5.43705936205174   10.84138317278880    1.12584437254123
C           5.95563774253952    9.64797636327958    1.61659346641705
S           5.48966881240271    9.42295738678268    3.28166365676058
C           6.84531188009815    8.75824519589314    0.98066643506837
C           7.17545683721083    7.53432241340191    1.47730006119749
C           8.24725409285114    6.73312508627525    1.03679757487339
C           8.55475697328034    5.44547866871242    1.45618658221792
C           9.78135953991403    4.98697076926300    1.00505491893767
C          10.47048786231792    5.91847299912133    0.23863057284927
S           9.51508290758886    7.35631279978145    0.01288239477373
C          11.82258285977198    5.86505125419160   -0.16495201216221
C          12.74559537216011    4.86169316442096    0.10257659774838
C          14.04941170816003    5.21906227494380   -0.19812003233931
C          14.17439761783855    6.49922420749534   -0.72224661860170
S          12.60461471504056    7.24367056479990   -0.88493202266339
C          15.36946954577220    7.21040813095295   -0.94449354529664
C          15.45811473937869    8.44400053998387   -1.51461894784185
C          16.61581363894200    9.24646083309768   -1.47535571835643
C          16.83693860132949   10.45903577057895   -2.12097565737651
C          18.02319056291691   11.07444778592996   -1.76442084734559
C          18.74536175068419   10.36774914574874   -0.80551538653952
S          17.94463372644198    8.87283316799146   -0.41101088069623
C          19.89734222949573   10.76740347587533   -0.10601204383845
C          20.67518675938806   11.91295271487724   -0.29757502769263
C          21.66757460824946   12.06445834717809    0.64393629556306
C          21.69249388393342   11.05031205371582    1.61190176314348
S          20.45277053288893    9.86283244630552    1.27194900495572
C          22.50739986884498   10.97523777122976    2.73724185258027
C          22.38849097226119    9.96799921703468    3.67985270606898
C          23.09693264211201    9.89834292781321    4.86943129597164
C          22.97041825987351    8.88671098605597    5.88071181049370
C          22.18635591904469    7.75270911302460    5.83461013297179
C          22.11538334406761    6.80018355026987    6.86857299060546
N          22.00666947605219    5.98223459222903    7.66883875760575
C          21.35202285565519    7.36793789548536    4.76840261672000
N          20.64574450302272    6.97541877438055    3.95013096802617
C          23.83456976811492    9.26153882884037    6.99944592465819
C          24.50125816892955   10.47498535356223    6.66655196880283
C          24.07503460004641   10.90871080534016    5.32216315732585
O          24.45408753903747   11.90085552403027    4.72753599681708
C          25.37122637870665   11.07947041529057    7.52527089158022
C          25.61876635318889   10.48838748560094    8.78596296726593
C          24.95574161286273    9.27567441305825    9.12686765907872
C          24.06038238518792    8.67090754904832    8.21238964618996
C          25.20541517569612    8.69649758638088   10.38659897202417
C          26.06863053952156    9.28598925861588   11.27034178011138
C          26.72115031489082   10.48045082618143   10.93377063683239
C          26.50100516146382   11.06863861548873    9.71735799792080
H           8.11624393013934    9.95855262204336   12.80963058334579
H           4.77312283328397   13.44059399504270   14.06159923252772
H           5.98145175674111   13.85610527670676   16.11913803456778
H           7.86809840536511   13.38102454203428   17.62851330290744
H           9.53105153358976   11.66270759820329   17.03619714143086
H           9.31804989207213   10.40633978068431   14.92744643207758
H           5.09882707196582   10.40552293219726    8.56386775536854
H           3.41824436968346   12.97801659279295    8.76730957899525
H           2.71222381093327   13.81890376663879    6.40408391584750
H           3.09259586940665   13.26689318479409    3.90672582263430
H           4.24001192805632   12.50608758719719    1.85252968116568
H           5.60786848821109   11.16727014012620    0.11508100998627
H           7.31458095924270    9.10837303335682    0.06980501277058
H           6.61682535745933    7.14715162527804    2.32096550008884
H           7.89808554688312    4.87797221332452    2.09125824824430
H          10.18652208496248    4.02259189508638    1.25115012259405
H          12.46905822764809    3.91741251213081    0.53459757972689
H          14.90100329890099    4.58549696321223   -0.02529729583197
H          16.27111375632659    6.74379444149395   -0.56666858001700
H          14.58526660197975    8.87472709315031   -1.98931088357917
H          16.13456962430941   10.86963242523725   -2.82462748975580
H          18.34896253602678   12.02189787884440   -2.15369850235442
H          20.50006479437332   12.60097001248417   -1.10497415272960
H          22.35996497637905   12.88684009575785    0.66868109626412
H          23.23274548376967   11.76138804681844    2.89060272963219
H          21.66055366183533    9.19194684110603    3.47653800462941
H          25.86366497331547   12.00038622666359    7.24969079385868
H          23.57309812044985    7.75405824156028    8.50329940786466
H          24.70004242273119    7.77621725091445   10.64112636228630
H          26.25253650009138    8.83423971178328   12.23378315741099
H          27.39875036996381   10.93308025473235   11.64247920634539
H          27.00062510702596   11.98936496218980    9.45278350840821
