104
 SCF done       -211.260632052170          0.000675509254
C          -2.17761451937771    0.98383155917003    3.14284647423308
C          -1.07438854327173    1.44948329220330    2.47470233314505
C          -0.24725282346060    0.63912850239837    1.66885686506810
N           0.46245794121657    0.02093618627903    1.01258539439492
C          -0.58671905111837    2.76487541667795    2.58948877530133
N          -0.15002726564123    3.82365258075527    2.67456918348979
C          -2.57218913093444   -0.41919877814758    3.22319420982588
C          -3.40135298651841   -0.59294235326136    4.36984246308551
C          -3.89560691128247   -1.81687886772752    4.71811389085871
C          -3.59059558431160   -2.93727100088875    3.91253180928836
C          -2.78259108371728   -2.76482465868180    2.75134469369450
C          -2.27538943134446   -1.48688607425167    2.42049120954180
C          -2.49893590841880   -3.88809408071028    1.94858347374876
C          -2.98469545647084   -5.12435094702926    2.27761968466377
C          -3.77702231540796   -5.29400073832718    3.42274326166295
C          -4.07332751436593   -4.22392724307096    4.22278822902031
C          -3.61479534164857    0.71262757156859    5.01588855501736
O          -4.21321010006257    0.95678238934131    6.03832855575375
C          -2.98543835571330    1.71052106545917    4.09941398933163
C          -3.32801163087848    3.02097864067950    4.23924848919764
C          -3.20556395616572    4.07696523504473    3.31056976368768
C          -2.99609830070847    4.01849736412649    1.94027573095788
C          -2.97713336509335    5.27787465021126    1.35667588423717
C          -3.18775970454678    6.31894909795198    2.28379034994158
S          -3.41361036905050    5.73600514323346    3.86578316655383
C          -3.15111478370454    7.55173376600309    1.58497510546306
C          -2.90359574330546    7.29094555596461    0.22510078033944
C          -2.77425758239581    5.85402060595327    0.03972745709384
C          -2.49768108998267    5.18187267758264   -1.11424898537786
C          -2.30490459503653    5.84845308005324   -2.34223638961442
N          -2.15768182156694    6.39407032844751   -3.33976244966432
C          -2.39430575785506    3.77478120278921   -1.13958456771859
N          -2.32257369505389    2.63047788373980   -1.14773448346461
C          -2.87131046198853    8.44492461543942   -0.55447650098212
C          -3.10270802719192    9.58407257257395    0.19846185236833
S          -3.34532042437324    9.21996734711817    1.89746218417912
C          -3.19329795684443   10.91870381995479   -0.27747617766052
C          -2.99740565746123   11.36671097432391   -1.56616932844170
C          -3.22216988087395   12.73822362453073   -1.70187098643206
Cl         -3.05846676942869   13.55357583392581   -3.20035080924543
C          -3.59599513471187   13.37877498213988   -0.52790057226387
S          -3.64551304073164   12.22653909821290    0.77623267184145
C          -3.94427215205764   14.73924969901536   -0.34325923142823
C          -4.32295306903195   15.38137382597025    0.82819539017381
Cl         -4.38255577655974   14.59219033159637    2.34879455046317
C          -4.66048036498070   16.72663429379239    0.66561573884699
C          -4.54770285277525   17.15002224271342   -0.63979978897809
S          -3.99984658626577   15.86124369105815   -1.67384797451651
C          -4.84541547207172   18.42801401922405   -1.17636071596142
C          -4.73265206742391   18.82755344297519   -2.49665637036214
C          -5.15140974447709   20.14376679008714   -2.68088995813072
C          -5.58558294540922   20.75014188735461   -1.48920260793919
S          -5.47077386233117   19.70185446241888   -0.14332587213062
C          -6.01142013434774   22.06729399940074   -1.77887526423776
C          -5.84659268140603   22.29963995880768   -3.16413610357572
C          -5.29072738556644   21.10062247096046   -3.77077083582230
C          -4.96012308833709   20.89873091168638   -5.07726628911924
C          -5.10772446090067   21.88204201114974   -6.08072360421766
N          -5.20255066928698   22.65258325734482   -6.92357599936962
C          -4.42835696656437   19.67064889349080   -5.52798328403799
N          -3.99744705268268   18.67517038322218   -5.89926040561817
C          -6.26223843748468   23.56418857379220   -3.55866530320734
C          -6.74762928289759   24.31331908152228   -2.49361852079685
S          -6.66587122517695   23.40827653767792   -0.97050236682834
C          -7.27236874673150   25.61654347689471   -2.38358956583885
C          -7.54401296841011   26.57636830919464   -3.31947722703542
C          -8.08416722444706   27.88873493267859   -2.99220947582739
C          -8.30606502717999   28.41190125377514   -1.74350198190139
C          -8.83380024516461   29.69996641556654   -1.50889580680658
N          -9.26119251217353   30.73016637784065   -1.23596872216921
C          -8.04422978709567   27.78659712137674   -0.50642048245966
N          -7.86072660183954   27.36618543884497    0.54736331841437
C          -8.33561885526299   28.59419058686453   -4.24355673324916
C          -7.93242863587315   27.75924334452533   -5.32242500312385
C          -7.41732270879124   26.48555071772656   -4.79623708911323
O          -6.99507135575181   25.56268194964323   -5.46135057558575
C          -8.04161651797284   28.15219625387987   -6.62514528217659
C          -8.57330694232679   29.42820930149776   -6.91567746272456
C          -8.98375574997710   30.27075144693389   -5.84244750807874
C          -8.85682707206599   29.83465303703984   -4.50369566252705
C          -9.51515354392039   31.54175297117764   -6.14222478900779
C          -9.63518086315470   31.96208772598257   -7.43884124209821
C          -9.23022800631478   31.13172171197428   -8.49466432420867
C          -8.71055477082209   29.89171501694425   -8.23877302263166
H          -4.51462570210560   -1.92981361534978    5.59571211869002
H          -1.67627596818327   -1.38046490293884    1.52964926158358
H          -1.88582504895438   -3.75283795528149    1.06983009884707
H          -2.76042403574672   -5.97900599401700    1.65718535866390
H          -4.15222990198815   -6.27643605018643    3.66745699990897
H          -4.68377385641334   -4.34840670882047    5.10524544452857
H          -3.83332327353978    3.26033227666345    5.17031096563715
H          -2.91363629551284    3.09456797011610    1.39808272962703
H          -2.70206102823308    8.46420615001334   -1.61467606612722
H          -2.70563117817383   10.73848246750345   -2.38621192962971
H          -4.97948114695482   17.35951238499209    1.47355860885478
H          -4.36692566739238   18.17357848601912   -3.26765352540978
H          -6.23493558302607   23.94774308273618   -4.56353806338483
H          -7.50632587177779   25.88002839972144   -1.35876176860643
H          -7.72526211675861   27.49602927379065   -7.42234582739071
H          -9.17946672956954   30.49785399280739   -3.71740800025273
H          -9.82502791461336   32.17760692531663   -5.32585539056636
H         -10.04299139825530   32.93748336357434   -7.65812971299629
H          -9.33216128352089   31.47965215865738   -9.51173387197047
H          -8.39699745545442   29.24782821752386   -9.04735921054830
