103
 SCF done       -205.257913305449          0.000584316011
C           0.42583692088104    1.07152178372031    1.54105181999966
C          -0.70895989626525    1.54578280304554    2.14705474373587
C          -1.07731172274004    1.23478983970354    3.47278914794038
N          -1.42915468488126    1.00696811826878    4.54091932092128
C          -1.68542370872462    2.32111158864297    1.49331284462914
N          -2.51681734978395    2.93647769719128    0.99414180518482
C           1.33716498954713    0.09543414010072    2.12808237957090
C           2.06512242237902   -0.53616739602723    1.07745288492794
C           2.97672709414054   -1.52042474512649    1.33037693285390
C           3.21520930545263   -1.91146958626879    2.66763378711518
C           2.50694990024822   -1.26637712175442    3.72276812813196
C           1.56098706667388   -0.25686640000372    3.43115470504149
C           2.76532153002067   -1.65570129953768    5.05254887990928
C           3.67620138836297   -2.63850111046807    5.32960846797168
C           4.37101895183075   -3.27527798113603    4.29053112135168
C           4.14530824503073   -2.91986997182907    2.98826541353640
C           1.68180804647611    0.06857577515281   -0.20998498277734
O           2.04153724346940   -0.24101735324599   -1.32261765582145
C           0.79076876884338    1.21234818409637    0.14662069404956
C           0.55995480702865    2.18225705798351   -0.78086881735388
C           0.11686703937455    3.50494020160436   -0.55962927091011
C           0.15227491666307    4.23667630461752    0.61802575734938
C          -0.34285483786285    5.52247908389222    0.45461796542308
C          -0.75954628348814    5.78955108858555   -0.86672269501678
S          -0.51718919146103    4.45712975480611   -1.89864606864544
C          -1.26205474231209    7.11183300456152   -0.91501957126674
C          -1.16513818245165    7.67829794420146    0.37079847922342
C          -0.59915553583824    6.68946554762241    1.27618460378307
C          -0.39255326268911    6.80681460639332    2.61899723502354
C          -0.69937750185648    7.98716007276353    3.32820083188938
N          -0.94683027155771    8.94921920176734    3.89989135354866
C           0.13889676059077    5.74067594756964    3.37543579746728
N           0.57558389500270    4.86644652907297    3.97534656776599
C          -1.63119495746276    8.98625177021879    0.42716457486851
C          -2.08782976654807    9.42501112602811   -0.80709044511577
S          -1.93857818783002    8.19613040755253   -2.05275874069802
C          -2.62138651386253   10.69914273668934   -1.09881142807291
C          -3.14140961316234   11.19486095683644   -2.27799344409523
C          -3.60256297253749   12.53649940024358   -2.21590128954919
C          -4.11214605158565   12.92958611921907   -3.48742526019944
C          -4.05494689794294   11.97389066940480   -4.44895527771777
S          -3.34995501336809   10.48687290005597   -3.84680301967058
C          -4.50732382896500   12.08003497562336   -5.85781373703899
F          -4.61233017363404   14.15245511957118   -3.74022947039077
C          -3.43218046547070   13.10463321466637   -0.95548302009321
S          -2.69870542821718   11.93903788833773    0.12709226545095
C          -3.74295568189643   14.38472671016637   -0.44321180040836
C          -3.43292317882335   14.82074724093668    0.84113678607942
C          -3.87187631746303   16.11615337153437    1.07406622733988
C          -4.53099016565189   16.67864742152998   -0.03695790215226
S          -4.59556106261136   15.60875610421521   -1.36761149460966
C          -4.94943833388974   17.98490998477123    0.30306192406788
C          -4.54878273391627   18.25463657768749    1.63310231980486
C          -3.86820742357499   17.08590724473259    2.16077481597469
C          -3.34775257111947   16.91478008752484    3.40878373689997
C          -3.44006649322422   17.89301327653895    4.42306435236124
N          -3.52031363132353   18.65619580764391    5.27424423042581
C          -2.68825225453866   15.72337711832371    3.78122658377694
N          -2.14688157286866   14.75794906678660    4.07955119190862
C          -4.89611633506407   19.52716055811837    2.06248754217271
C          -5.56863152402139   20.24659652132778    1.08256096599771
S          -5.77624146707890   19.29463472730309   -0.39717471987688
C          -6.15556819702025   21.52704293462338    1.09316709797335
C          -5.99971233376574   22.55607865148387    1.98190712183792
C          -6.78031779717810   23.78073787398033    1.95672665685380
C          -7.95125158366627   23.99052244332504    1.27318165940355
C          -8.68037815985494   25.19733278340620    1.31104735505377
N          -9.31775847257189   26.15220224985330    1.29258717719189
C          -8.61746359535816   23.03781595936608    0.47475954414631
N          -9.23016815810176   22.31298846145560   -0.17289228788092
C          -6.15749202686693   24.73000335724833    2.87092112171916
C          -5.05493153180616   24.08872415571474    3.50201367285977
C          -4.92519998488746   22.71238850200642    2.99598431770855
O          -4.06895327296472   21.91369982758648    3.31259968721483
C          -4.28000012818333   24.72468303993748    4.42821659008078
C          -4.57989227669823   26.06127015269182    4.77386003078602
C          -5.67655044161639   26.71463707972722    4.14088335709712
C          -6.45958443970761   26.02905620522969    3.18357694114423
C          -5.96456517027593   28.04949050674025    4.49085899653087
C          -5.20909951005867   28.70758893971366    5.42293261383804
C          -4.13045045169345   28.06272318635807    6.04628330958995
C          -3.82243579223259   26.76760956576426    5.72853856977843
H           3.51328802037359   -1.99358344131039    0.52143422999090
H           1.04748527372282    0.22637495479774    4.24765816884891
H           2.22538705673507   -1.16402312422239    5.84826155001156
H           3.86617586630135   -2.93090332628763    6.35143875267662
H           5.08679702489560   -4.04831361193541    4.52700195220583
H           4.67838084867471   -3.40641219054231    2.18451305210963
H           0.82176769362133    1.92002694017128   -1.80106922680498
H           0.56380745561192    3.85268443055782    1.53341541536277
H          -1.64966939425545    9.60598777354936    1.30571444965677
H          -4.89887755056562   13.07718226323130   -6.04494703375068
H          -5.28696013073507   11.34705933422566   -6.06336394014933
H          -3.67987613312041   11.88718096843466   -6.53981731578726
H          -2.90975435631009   14.20428417018572    1.54998378303885
H          -4.67586749391763   19.93207730490455    3.03264143804009
H          -6.81995656790991   21.70491630256052    0.25528589850001
H          -3.45164780798676   24.21166827782860    4.89380968140308
H          -7.27856595961529   26.55421441269521    2.71849326146921
H          -6.79708915905619   28.54144330571635    4.00955984623573
H          -5.43926146649394   29.72928009785417    5.68561193713783
H          -3.54493547405866   28.59707970188742    6.77943844628517
H          -2.99328592377275   26.26536716564508    6.20503304622788
