144
 SCF done       -278.673770517572          0.000627537117
C           5.51999021101499    2.98630077111512    2.76100369588161
C           6.84519493827982    3.22064711446181    3.01578939591201
C           7.79542253668648    2.20233903441504    3.23758266820417
N           8.60862632762978    1.41657614736907    3.43450547552770
C           7.44431290394121    4.49802659181867    3.04541960381961
N           8.00231402703306    5.50145648743688    3.05811695244235
C           4.89571576932511    1.67914176697216    2.61142728736509
C           3.55596282917376    1.86965552900007    2.16858254850662
C           2.71590271149854    0.81924568607541    1.93474515340123
C           3.18632097380908   -0.49655599131526    2.14179806425678
C           4.52325034462030   -0.69595015098749    2.59304743884978
C           5.37080867278911    0.41214985606225    2.82365938844712
C           4.97852533142203   -2.01335593624900    2.80329705311911
C           4.15531352202974   -3.08307840694443    2.57819791207942
C           2.83979328661109   -2.88543286863927    2.13296456590809
C           2.36586306980302   -1.61961157928954    1.91855326662491
C           3.27745821167135    3.30809152624742    2.02838424441172
O           2.23159744579107    3.80075853558661    1.66022360176551
C           4.50758011568235    3.99675052010628    2.50161368698488
C           4.59867927314107    5.30323072543327    2.88175767433232
C           3.66054398688515    6.33422786042766    2.62845957105234
C           2.76879868255807    6.48544163532556    1.59925231147409
C           1.95459550451705    7.63132482961305    1.71438769440739
C           0.89234612349412    8.02065022402433    0.86765485785359
C           0.48824351584721    7.19350176798685   -0.24833699784386
C           0.42073877528085    5.82918608756678   -0.30792801496848
C          -0.01918470519726    5.36583988807158   -1.56578796976342
C          -0.28747485946454    6.35021235201008   -2.47358023037631
S          -0.00483003348896    7.90281456295066   -1.76465266945357
C          -0.75219565338377    6.22151035227684   -3.87716386440822
Cl         -0.19423792337606    3.68934048624808   -1.91213337638777
C           0.24384383342313    9.20354968439185    1.19944222336111
C           0.57150087501453    9.97817209203065    2.34239606255316
C           1.61910006322217    9.58074056067042    3.19835596255411
C           2.29248287379252    8.41435165257679    2.84884315734443
S           3.58877679442489    7.68737809688478    3.74969866418833
C           1.97748705028366   10.31531797383438    4.39470113847691
C           3.22922737244238   10.53067453128645    4.89668709408424
C           3.21603966778180   11.24272247247796    6.11568508351901
C           1.97043098380442   11.56700172358733    6.56816549751301
S           0.77217293536241   10.99050567385138    5.46029209336997
C           1.58645452668891   12.30244496401445    7.79899191459357
Cl          4.66327807139545   11.65948842912285    6.94967453322499
C          -0.26830197351056   11.10753125080867    2.46649458775011
C          -1.22092133337413   11.19490681096881    1.49089447301333
S          -1.10786474025878    9.88720975922851    0.33495150306293
C          -2.24479122051340   12.17556182132184    1.38432009653680
C          -3.17260363326081   12.33915553188759    0.37639775349960
C          -4.06173725764815   13.38239041367025    0.65020022220957
C          -3.80413757927378   14.00566243944393    1.88082992812660
S          -2.46495363007972   13.32965105770228    2.69147608152903
C          -4.77833067792173   15.01505932693906    2.09299076432467
C          -5.64836521304193   15.03724753849384    0.99155893968468
C          -5.22072351277478   14.01902594703079    0.04251053538617
C          -5.78951825778986   13.72399564963337   -1.16127717704304
C          -5.28958133050357   12.70637553411016   -2.00108103671284
N          -4.88918552354352   11.88017425204940   -2.68780376742104
C          -6.91518705350347   14.42285705501313   -1.64628127982404
N          -7.82861734247502   14.99375724627094   -2.03919608153782
C          -6.67050927870521   15.97913138622454    1.12812132045606
C          -6.58443345448671   16.66241278106877    2.32644169701766
S          -5.21286262282072   16.14567585153851    3.29175869847796
C          -7.46821944568886   17.65330063275178    2.83940270901488
C          -8.55506834857685   18.21716942065397    2.23011101597952
C          -9.24262018459538   19.14654381535244    3.04622581483169
C         -10.41269174552355   19.87037746979811    2.73926892121163
C         -11.11037481514496   19.67445326690764    1.48440586541605
C         -11.38255687682722   18.49761949506577    0.84727717658855
C         -12.08961553826430   18.68355946607218   -0.36042844106059
C         -12.35632215924487   19.98792536675449   -0.66191097388159
S         -11.73405471012343   21.02443119932612    0.57623555233873
C         -13.06662318162049   20.54521507413477   -1.83976698909352
Cl        -12.56728891029126   17.36172933215184   -1.35601957818227
C         -10.86837804681526   20.75711873884383    3.70940900635611
C         -10.24368358112799   20.91346013022903    4.97668848100462
C          -9.09373858714499   20.15724903347236    5.30028883243208
C          -8.61733568713776   19.30962656169745    4.30936357535916
S          -7.22767482099178   18.27118355113137    4.45994358833503
C          -8.45603311417107   20.22704215020662    6.59754777905973
C          -7.11861921376417   20.17493223531598    6.87868301852399
C          -6.85386056020955   20.20936044272027    8.26284060995498
C          -7.96834172347285   20.27130195867001    9.05029425943266
S          -9.38840721860514   20.29983013156897    8.06774372671615
C          -8.05947873601767   20.31281261546433   10.53129929794679
Cl         -5.25185822251121   20.17214917757934    8.89316474060558
C         -10.89469314020841   21.87043262764607    5.77733749215022
C         -12.00808585624407   22.41972431734672    5.19084178008172
S         -12.27394453507237   21.76399952158533    3.57525937594513
C         -12.95152818337078   23.37477066842388    5.63523725878601
C         -13.07068350713805   24.06486867185329    6.80847230991614
C         -14.16201918771652   24.99502562644394    7.07971803460649
C         -15.18008279264568   25.35722671762420    6.23630282058836
C         -16.20450282667803   26.26582090750506    6.58122432395642
N         -17.07106630772591   26.99050533298111    6.78619453450007
C         -15.38998754095823   24.91584905943942    4.91193491553857
N         -15.65536322693242   24.62971698769980    3.83123811514758
C         -13.99345652357290   25.50346927344374    8.43637095583406
C         -12.81793758261037   24.92684369939229    8.99062550037354
C         -12.19601772661752   24.02517878248755    8.00840463934739
O         -11.17065657958739   23.39874210025660    8.18607293308607
C         -12.39265881764543   25.21733671089245   10.25495626043408
C         -13.14258741577980   26.11716071602657   11.04350414141868
C         -14.32440751713341   26.69740809818628   10.49919539970131
C         -14.73716690750548   26.37772061592464    9.18544143384786
C         -15.06838690093575   27.59306277245173   11.29426525475705
C         -14.66521941675272   27.90234037150256   12.56468633839670
C         -13.50040132215274   27.33119649805376   13.09887232166781
C         -12.75537981062037   26.45743974609345   12.35450648292576
H           1.70468349460567    0.99034488878438    1.59632051203488
H           6.37521321380402    0.22994320006428    3.17188063220784
H           5.99256495192808   -2.16087247774747    3.14478131299914
H           4.51373838876411   -4.08823494579362    2.74211322056402
H           2.20375011384714   -3.74084734791919    1.96109830331596
H           1.35387785847700   -1.46074237158990    1.57575029488040
H           5.43507417290365    5.59404331825481    3.50684911688449
H           2.73433495583577    5.82012755993910    0.75977263855256
H           0.63844339181030    5.17069970156622    0.51290175991161
H          -0.92136314743826    5.17368614047073   -4.11245765598219
H          -0.00880203124327    6.62271232233570   -4.56571595653679
H          -1.67845725067127    6.77488365563676   -4.02598037173596
H           4.13680100984953   10.23180692105207    4.40632119872068
H           2.48062734289266   12.58478790685634    8.34881199816208
H           0.95891439431548   11.68175079548182    8.43789108639323
H           1.02430177712294   13.20190461208435    7.54970216216204
H          -0.17889274249819   11.84023840994818    3.24729265316502
H          -3.18883359924699   11.71904754216225   -0.50186784896512
H          -7.44534495224130   16.15464151159316    0.40525306629941
H          -8.84434960153154   17.99181264268964    1.22106863826220
H         -11.13588282481875   17.52824015758331    1.23933979222883
H         -12.41520930844484   21.21591473221410   -2.39917290595254
H         -13.94093025875975   21.11374777438291   -1.52482789771100
H         -13.38550668977064   19.73639066139042   -2.49224725122264
H          -6.34259611269427   20.15711001021288    6.13631211079175
H          -7.07124392150073   20.46983371505709   10.95666749691302
H          -8.46200197259771   19.37613291748299   10.91799944160055
H          -8.71976448841752   21.11823177465446   10.84817806426831
H         -10.56199573305159   22.16800996420599    6.75368012051249
H         -13.71865370588357   23.56687088877519    4.89441989076000
H         -11.49361541038521   24.76516240560206   10.64693838364884
H         -15.63639389927994   26.83643730722578    8.80750655300013
H         -15.96408207231279   28.03080616893172   10.87860969112073
H         -15.24172574940472   28.58960990235267   13.16551714880559
H         -13.19670376395924   27.58710291954047   14.10296568560965
H         -11.85752210306165   26.01436871020080   12.76018462939764
