97
 SCF done       -179.132806010766          0.000444441937
C          -1.43308584136681    0.49824933013140   -1.47144541589831
C          -1.10551595513464    1.09647810043793   -2.66267276039629
C          -1.26834771618513    0.48068437141966   -3.92015555625995
N          -1.36858367157928    0.02318741424898   -4.96819524000991
C          -0.47511567650425    2.35045258289657   -2.76409151451528
N           0.06124766894724    3.35836752972069   -2.89064999604407
C          -1.87249610562841   -0.88707138335623   -1.33123048897093
C          -1.63252360745121   -1.30462807200176    0.01006810926599
C          -1.92179896935881   -2.57089540766127    0.42846866346363
C          -2.48684660272470   -3.48706643622296   -0.48818553733294
C          -2.74826662848865   -3.06806518497096   -1.82446313651855
C          -2.42968524511720   -1.75189613733080   -2.23272477806882
C          -3.32358932855672   -3.98751375877171   -2.72439770251813
C          -3.62386191146576   -5.26205386151202   -2.32709524276723
C          -3.36449900062586   -5.67462711721589   -1.01185475930330
C          -2.80788428660360   -4.80616924448227   -0.11236970863040
C          -1.08820731939642   -0.17059536401314    0.77927291759728
O          -0.71360274051507   -0.15941878116922    1.93101805858548
C          -1.15271172873196    0.99550972522912   -0.14402341832361
C          -1.03352991886389    2.25310568020595    0.37527561727816
C          -1.46299741587396    3.47273093327211   -0.17992297326797
C          -2.37679570715239    3.69084308170581   -1.20251283127247
C          -2.59294586816996    5.03905151658643   -1.44137528917842
C          -1.83466890753175    5.87966090768139   -0.59346446062729
S          -0.88354918821677    4.99326120855288    0.50605265393125
C          -2.11982754978251    7.22001699123552   -0.92791077271084
C          -3.05458071414265    7.23623465091840   -1.98092063275621
C          -3.37091388280814    5.86251632541582   -2.34398713947045
C          -4.20229738451699    5.43212379209532   -3.33776028199212
C          -4.90873318643284    6.32348061983986   -4.17056274100011
N          -5.48779502015166    7.04516462585111   -4.84810683660921
C          -4.40455750714139    4.05835628288354   -3.58437187990076
N          -4.57076294788451    2.93926520565107   -3.77349185859025
C          -3.41528686860593    8.52017976712773   -2.37337123788974
C          -2.76313486375399    9.49455894363436   -1.63272355744650
S          -1.68115202071921    8.80144988612476   -0.43320312605051
C          -2.90996485704094   10.89473646039980   -1.75102328630627
C          -2.23145311054165   11.87954243139713   -1.05519932752490
C          -2.65612210162112   13.15331881313542   -1.42499461979795
C          -3.67474041297199   13.14585821425974   -2.41078317586147
S          -4.09375930397600   11.54414897680495   -2.88480090157752
C          -3.99919066487113   14.47308467887310   -2.66241819158596
C          -3.16814096858697   15.26210720538487   -1.82802514104664
N          -2.36504247371425   14.44550149345618   -1.07553464849654
C          -1.35915059798489   14.86501966571014   -0.14060707062196
C          -3.38099076536145   16.63171871656230   -1.96272538854326
C          -4.37493953089266   16.90010699367935   -2.88949820392008
S          -5.05662868902609   15.44665183071215   -3.61513494151484
C          -4.85242706439458   18.17055534842381   -3.26532024183468
C          -4.40427506795634   19.42020334945492   -2.81428780209442
C          -5.11931569660640   20.50537539167973   -3.40568316856253
N          -4.83935517764737   21.78396042001244   -3.10641869401210
C          -3.87622758328692   21.99398089604113   -2.24459304255670
C          -3.15526977498910   20.91008295278954   -1.64686330996448
N          -3.41777662247181   19.65730572911169   -1.92807622890218
C          -2.06082905392386   21.17009474284207   -0.66510254546735
C          -3.56094932571021   23.41318482245692   -1.91064520863457
C          -6.11136555712115   20.08865299105427   -4.29831370910864
S          -6.15257411698272   18.36347311659504   -4.40774103753002
C          -7.00046405192333   20.88021935880682   -5.03662885539556
C          -7.98992003073889   20.38951299618790   -5.88944438106989
C          -8.76092154564167   21.42607682261461   -6.50798045912494
N          -9.76373526672218   21.10803935566155   -7.36127014689192
C          -9.97574372690927   19.83779128863113   -7.57549331386401
C          -9.19598604130887   18.80330906172645   -6.94834629867337
N          -8.22199194129654   19.08864427803014   -6.12159629176414
C          -9.46441455021671   17.36090138832957   -7.21228698232146
C         -11.08192148287151   19.48484646443988   -8.51370877859453
C          -8.34546670036361   22.68073610337867   -6.11865625090998
S          -7.03593124337748   22.60852652098459   -5.01211151653267
H          -1.72568318260014   -2.87157002869399    1.44702108130676
H          -2.64927738987801   -1.45471479997094   -3.24630965287802
H          -3.51869506896714   -3.66529450203352   -3.73670013006963
H          -4.06282876029558   -5.95965251700786   -3.02471163813997
H          -3.60850027545267   -6.68365258692634   -0.71439969740765
H          -2.60676806740269   -5.11834971499048    0.90217672670226
H          -0.62695222486260    2.29623677906716    1.38102005059357
H          -2.89096060340540    2.89258028394739   -1.70596641801638
H          -4.11424764239737    8.76036780161084   -3.15428996583876
H          -1.47207516355724   11.65551618366430   -0.32782261245265
H          -1.60078589857662   15.86312560978089    0.22022916965452
H          -0.37014132371526   14.88693114183494   -0.60819463205038
H          -1.33286691552167   14.17622589466544    0.70397816689151
H          -2.87221310819650   17.42208694435956   -1.44399269784297
H          -2.44346594904355   21.71741642164463    0.19506773527652
H          -1.27473887049864   21.76924114768797   -1.12211454936320
H          -1.64208784916528   20.22499329136089   -0.33131871278521
H          -4.22367952113405   24.06482903392020   -2.47276206922480
H          -2.52726719019456   23.64422163837615   -2.16383200491544
H          -3.69512001227892   23.59379970110984   -0.84511809662801
H         -10.48343567085311   17.10342182803903   -6.92690024271199
H          -8.76611080898472   16.75859953552586   -6.63783011772646
H          -9.34631272813138   17.13825383453509   -8.27183017545393
H         -11.54553542207442   20.39704341942623   -8.87766327411737
H         -11.83015932556580   18.87661843845759   -8.00788045863064
H         -10.69776311735258   18.91353620376428   -9.35727479590509
H          -8.74142923160922   23.62704144639789   -6.42521297064617
