85
 SCF done       -172.805942462257          0.000690507533
C           1.35865738960640    0.89092621833922    1.06984305350893
C           1.17725036537586    1.52034820180332    2.27242858843558
C           0.86260383040956    0.85129896411808    3.47060772701899
N           0.57168682102373    0.35426285532597    4.46386770596675
C           1.36305301065143    2.90888362488514    2.44105942953409
N           1.56637365913395    4.02438376636598    2.61794914887620
C           1.51427842989564   -0.54530503956730    0.87674219859736
C           2.20314978390598   -0.76315048202858   -0.35333242636728
C           2.53724113447545   -2.01848038705698   -0.77307980486914
C           2.18307144869008   -3.12967241134601    0.02513891769945
C           1.48051595338093   -2.91847114946453    1.24703876156856
C           1.15335724510008   -1.60696818006611    1.66122038736848
C           1.12957895798998   -4.03663822790232    2.03046750556225
C           1.45879878884000   -5.30304822824835    1.63064792935465
C           2.15162765937736   -5.51008709188268    0.42843893775599
C           2.50599687032713   -4.44681316866796   -0.35681251786640
C           2.44247494776510    0.53171464896183   -1.01654033104870
O           3.04202131945775    0.74937380607387   -2.04397996757383
C           1.71977552035399    1.53212387160640   -0.17895480174519
C           1.39941737859686    2.74203934334423   -0.70696144590328
C           0.39351847392121    3.65232356458484   -0.29590185606593
S          -0.97214359303631    3.16032968394608    0.66307082793850
C          -1.66023049791714    4.74163267582309    0.56734681938616
C          -0.87463953043795    5.60356133601458   -0.18511789993625
C           0.28268112646119    4.98564909733771   -0.67502134422046
C           1.30021374790680    5.69341999596554   -1.51276650275695
C           1.07951626903319    7.21466882370563   -1.51332918608469
C           1.58058677997237    7.80178385546836   -0.28947330051097
N           1.97728139949232    8.27643192515998    0.67034409816818
C          -0.42201335625076    7.55150299909657   -1.66199124888727
C          -0.92594963149907    6.94173762970222   -2.87168861492941
N          -1.30775115599317    6.43931692957802   -3.82418352436643
C          -1.20770619149082    7.03282350632260   -0.44966036627728
C          -2.89110111625004    5.00839229520401    1.23843464687684
N          -3.46624233423922    6.19806967617847    1.12524028346056
N          -4.59026374541254    6.50355061421067    1.69474092131610
C          -5.25421632633077    5.66840904831415    2.48323291507171
C          -4.72244187837649    4.36917190336726    2.72045010042597
C          -3.50932294381880    4.01966732046825    2.05686335024966
N          -3.11904123246545    2.78230037941667    2.34176246799957
S          -4.17951040946926    2.12750526904796    3.36070474280220
N          -5.18638942095632    3.37967152903447    3.47666437951758
C          -6.48629360803103    6.09759083688739    3.05657972654775
C          -7.09780700211542    7.32708012206407    2.88400466342534
C          -8.30542578247897    7.39912546961799    3.57292410051000
C          -8.60328661476554    6.21216231671799    4.26975376992489
S          -7.40384482268411    5.01593633750772    4.08279677277750
C          -9.84970717265537    6.38211940234574    4.92914763551768
C         -10.33812955988387    7.66630333787682    4.64977111861940
C          -9.38778928926555    8.34944257585700    3.78591314371415
C          -9.49554785446721    9.60757183997176    3.27273307740654
C          -8.50739276898529   10.17147575694780    2.43696109036593
N          -7.71561525646825   10.64403885406467    1.75615317069730
C         -10.61080418912596   10.43373122726621    3.53028247793794
N         -11.51701762979198   11.10795821138355    3.72676911081315
C         -11.57257115627885    7.92056029262070    5.25755090021749
C         -12.02546199690584    6.83699389557506    5.97668884012383
S         -10.90672037630016    5.48677209817624    5.92445629429346
C         -13.23048456068030    6.76629873758107    6.76728305531248
C         -13.78527869007735    7.85944974449525    7.37441511748950
F         -13.31885849842347    9.10528506637100    7.32912645872308
S         -15.19502188433448    7.53180714792612    8.31611459990477
C         -15.03353912290916    5.86156546294690    7.88347487861918
F         -15.95230861598911    5.00604075140838    8.32576144882060
C         -13.98045511201671    5.57240390801231    7.06807791446951
C         -13.69573797460090    4.25755489413896    6.51269923358432
C         -14.00721382171533    3.10407813626753    7.08834755969856
H           3.06714710710802   -2.16360251081032   -1.70273929843173
H           0.61507655007935   -1.47184355143801    2.58659811440048
H           0.59941155753496   -3.87167706720780    2.95699294731265
H           1.18783237114059   -6.15278073669867    2.23918393828941
H           2.40311819582401   -6.51613661819731    0.12785302085865
H           3.03968914375241   -4.60036527805886   -1.28328664795413
H           1.92331804834389    2.99636108127215   -1.62375628384213
H           1.22857751479657    5.32529458470003   -2.54248208175766
H           2.30576142292046    5.46997943669549   -1.14747551906072
H           1.64233370821639    7.65795741015522   -2.34483658564174
H          -0.55297896682936    8.63676969762654   -1.74599159835060
H          -2.28337730479104    7.13881851959900   -0.60235126324515
H          -0.95246470754037    7.62913980980114    0.43170331228668
H          -6.65579976312213    8.09833053783613    2.28065737401057
H         -12.12075814230283    8.84032211867837    5.16932274361424
H         -13.20317560213642    4.26710320408926    5.54984233492909
H         -14.48399351920644    3.04983081748819    8.05134315543141
H         -13.78553919974447    2.16706112819608    6.60881547261572
