107
 SCF done       -203.812004005221          0.000843962855
C          -3.54425535980074    4.05763404855774    0.98471880844660
C          -2.51802596504923    4.08214245960237    1.89453845562686
C          -2.48385851346497    3.29191676650104    3.06163994713867
N          -2.39564643032112    2.68164938855215    4.02967959446343
C          -1.33046780949682    4.81418841665077    1.71523588277949
N          -0.32618810686171    5.35719058703562    1.58326675352400
C          -4.65703153173722    3.11856077311919    0.98036041356391
C          -5.23981256446060    3.10864271305135   -0.32121837398655
C          -6.30367933869546    2.30822423592167   -0.62246618542410
C          -6.84850678109277    1.48038000561456    0.38498113362250
C          -6.28191462258220    1.50306079202112    1.69254620629502
C          -5.17330421765569    2.33337077805915    1.97419641697178
C          -6.84866726363851    0.68611909036161    2.69160232904422
C          -7.92060233795607   -0.11811227804008    2.41460261335397
C          -8.47507185222394   -0.14276266284154    1.12627383894569
C          -7.95014399224575    0.63918605660329    0.13323752100705
C          -4.54597184440434    4.08570572184075   -1.17410673776521
O          -4.71410572172482    4.32135902953122   -2.34843811407150
C          -3.60730264899798    4.79856321035336   -0.25637622432391
C          -3.09226577235388    5.99676779161288   -0.64102768794681
C          -2.46936305906854    6.99899095003748    0.14663152742877
S          -1.22698634653246    7.94130498167430   -0.61340862510455
C          -0.74241352208567    8.66487117387253    0.86961768396793
C          -1.54021867135177    8.22894768722423    1.93022170056674
C          -2.58064674247427    7.33363851395934    1.50514055621636
C          -3.55151008893208    6.89832286747467    2.44632687929362
C          -4.84613427684018    6.25474497669267    2.10650601939248
O          -5.38863781098697    5.44677194490774    2.81133746133878
O          -5.45423238996788    6.69143294236954    0.98425443257343
C          -3.34354182317717    7.17798949686085    3.78084087061900
C          -2.24704897773016    7.91730071956674    4.21651907562914
C          -1.35352462289003    8.46750095908829    3.32223950785855
O          -0.34165221928435    9.19072566125892    3.83332387709024
C           0.31709911944264    9.63760638532612    0.86790851948035
S           0.00321456282846   11.26304642030284    1.43343546753023
C           1.64841721801949   11.72404617368046    1.10042168905646
C           2.34957005261567   10.70025535271695    0.50910909627770
C           1.59590183488701    9.51341203671147    0.37831412570282
C           2.18993994032187    8.23854561195048   -0.12994964188784
C           3.49782194785990    8.50354476967409   -0.87007840400702
C           4.40827900130366    9.40441654967900   -0.02478822107796
C           5.75441189047876    9.49866087835260   -0.69116174309514
O           6.77836565726335    9.05637222874685   -0.25818753136780
C           3.78072924809689   10.79700025788341    0.08865208956064
C           2.09723192459152   13.04595055267818    1.41870086140814
S           2.89760229756532   13.98883362015842    0.22028753039582
C           2.99327529758024   15.38388156244148    1.24510840057302
C           2.34370256572379   15.13380355481643    2.46166390060285
C           1.90399796223864   13.78017592425762    2.59523142503229
C           1.37618467708973   13.33418533092439    3.84042624233659
C           1.16903216584076   11.90651670565952    4.15237501398332
O           1.81184936440288   10.99308089205658    3.68175373215773
O           0.19762991833796   11.70229860172844    5.04093818636966
C           1.15716510588052   14.26730018890745    4.82798023576739
C           1.42311478894717   15.62380627755831    4.62918008192846
C           2.00398811356619   16.07895200387747    3.46716513195199
O           2.19672554388370   17.39253355076829    3.23331138082605
C           3.68255595683871   16.51841685980774    0.76897220589560
C           4.37274961341385   17.41616462011629    1.53472769788207
C           4.91319638405222   18.68160787472922    1.08741870400485
C           4.63178222175938   19.31257041976313   -0.09795049054454
C           5.15128279537202   20.57046840267727   -0.46573696290459
N           5.54291332237537   21.58849835714270   -0.82456857179548
C           3.76975521292580   18.81345796132997   -1.09578508107112
N           3.07111304329938   18.48050937169402   -1.94470996918441
C           5.73267802240520   19.22411779756739    2.16488525147947
C           5.68258328739054   18.32464196626548    3.26751891430052
C           4.84522990042048   17.16248547691022    2.91952258725509
O           4.67558834297648   16.16949127234151    3.59838157453715
C           6.35094626063970   18.57242924846345    4.43119265751705
C           7.10807096355159   19.75972461547590    4.55233276403822
C           7.16772837071238   20.66227039410619    3.45183117761328
C           6.47075134003134   20.37405857281908    2.25545346214526
C           7.93012176164261   21.84080317462906    3.58107678685385
C           8.59998405595317   22.11780156300893    4.74180604463610
C           8.53947727374448   21.22897175206575    5.82526400788922
C           7.80900655693935   20.07518925335639    5.73259937332171
H          -6.73094417736015    2.31197058406893   -1.61431748504575
H          -4.77582732233349    2.35382406973359    2.97620428396304
H          -6.41737769904959    0.70882316028621    3.68138948538834
H          -8.34807079864376   -0.73984856523790    3.18711103876096
H          -9.32136881075101   -0.78259643067310    0.92490860922076
H          -8.37465026156799    0.62596246224621   -0.86011612687517
H          -3.17253484844025    6.20831826111392   -1.70373774847187
H          -4.94886296911673    7.37552309542703    0.52485968464012
H          -4.06347545816405    6.81177760175440    4.49646084371807
H          -2.08931669490623    8.08652692551471    5.26902317844443
H           0.34306550898902    9.41974769002285    3.18281422093810
H           1.48831997154303    7.72573191470914   -0.78940354643631
H           2.37395560363249    7.57578567025728    0.72120254846792
H           3.29185650538144    8.99452695842055   -1.82385591455827
H           3.99556733152266    7.55484743407885   -1.07547964940403
H           4.53215201493486    8.96689825404890    0.96989721127200
H           5.72182821992386   10.01698295297446   -1.67191586003204
H           3.83299303682822   11.29788230212067   -0.88469757089098
H           4.33696423741672   11.40625038374881    0.80410570962993
H           0.06283317806645   10.74417329856013    5.16662202177133
H           0.76495973019226   13.94150532335032    5.77818596326302
H           1.18045932755057   16.32902529520781    5.41219858047281
H           1.92516586225138   17.90509102611720    4.00668043892822
H           3.70239906344115   16.63169444406449   -0.30804725833221
H           6.30075307814103   17.87218077026184    5.25210150001886
H           6.54361185982097   21.07254156377322    1.43701720756116
H           7.97289895421956   22.52240616188240    2.74421332529952
H           9.18056953501596   23.02372854326053    4.83122939801501
H           9.07494947306485   21.46234182242702    6.73339735379122
H           7.75986488920015   19.38629283948125    6.56337129790099
