96
 SCF done       -191.161631562168          0.000819618438
C          -4.33972482509160    1.15497472183299    1.72427139763069
C          -5.01635518385317    2.12041240678869    2.42040209343938
C          -6.38017666086467    2.02681891606109    2.76719438752278
N          -7.48932967605235    2.00957185834519    3.06161217209390
C          -4.41916523578425    3.28720897478944    2.94028379292215
N          -3.98529838316190    4.23927822408017    3.41191789065936
C          -4.85911563402226   -0.16248304053227    1.38143025310688
C          -3.76123326012858   -1.02083669404751    1.08066600724001
C          -3.94633610319067   -2.33429808765725    0.75774498603429
C          -5.25967212022005   -2.85373902150293    0.70787687636443
C          -6.36211455396332   -1.99511108525978    0.98754890034796
C          -6.14056210874159   -0.64121068917038    1.32746985549870
C          -7.66770579153378   -2.52298572099245    0.92373243216523
C          -7.87683966489843   -3.83657244193256    0.60344382265968
C          -6.79092684848816   -4.68206362436695    0.33124290063138
C          -5.51066417476506   -4.20133904379202    0.38267441721589
C          -2.50519829419905   -0.25482912176297    1.16522894329210
O          -1.37403947304623   -0.65574978965455    1.02844323466435
C          -2.92698891705811    1.16231686195851    1.39569572378623
C          -2.03687706967404    2.16059728750486    1.19638287024283
C          -2.26332782908629    3.57040685042048    1.02892849580416
C          -3.34639806857819    4.14853779197833    0.36728779785799
C          -3.48979908100492    5.55181772128079    0.21380805253521
N          -4.60393342069866    5.92828061744205   -0.47656347748371
C          -5.28294528127203    4.93030764396920   -0.87303713753492
S          -4.66637581180422    3.35338423428406   -0.43860045140329
C          -2.56312039023753    6.44650835407022    0.76109709536077
C          -1.47947560969274    5.87599385367235    1.41570160939732
C          -1.30102177280590    4.47346486107067    1.51552552872331
N          -0.15877707969440    4.09798062553278    2.15057024903802
C           0.52810404418986    5.10869211012681    2.51911803935453
S          -0.13243700060172    6.67918228642377    2.15576843723679
C          -2.76393149924624    7.88950343113494    0.65587584005524
C          -3.07211690129970    8.53022308833722   -0.53620531140498
C          -3.28983577523115    9.93075728858169   -0.61850952694661
N          -3.56821712132923   10.37880838205430   -1.87595586775782
C          -3.54719190380486    9.43396956685106   -2.73063472057876
S          -3.20143282726851    7.83653278116263   -2.12324132924402
C          -3.24088880351855   10.74101620656970    0.52181820575464
C          -2.93977591088221   10.09940521290235    1.71576281637383
C          -2.68186828168628    8.70517329083856    1.79078374783898
N          -2.38315912387148    8.26089812768653    3.04331752473500
C          -2.38134528099436    9.20944236101738    3.89391152369466
S          -2.75973003607740   10.80221595619307    3.29229110654767
C          -3.52115243364824   12.17196298476889    0.44303208844016
C          -2.94567040039783   13.01244904642262   -0.50205593539357
C          -3.25200058356849   14.39314201404411   -0.57461412466544
N          -2.57987494012415   15.06439412987822   -1.54847043709235
C          -1.79702654382954   14.29340638889104   -2.19848383340879
S          -1.76410412297890   12.62109797215347   -1.71222704502303
C          -4.14429628046032   15.00773209494207    0.32761416281923
C          -4.73554677974913   14.15461667962533    1.26146518581523
C          -4.43979157688813   12.76616822891190    1.31650593842761
N          -5.16655195017500   12.07414108088267    2.23919197017015
C          -5.98451354699428   12.83024944926274    2.85818032210850
S          -5.97626552735978   14.51380533862926    2.41235284697678
C          -4.42465881747141   16.40329630148524    0.14634276896628
C          -4.67583492269558   17.33981040158770    1.09655970700883
C          -5.06636067179236   18.71981648473671    0.84242117763548
C          -5.54420676767874   19.21859963983142   -0.33872848137910
C          -5.93406715434341   20.56166620775604   -0.52776595734453
N          -6.25865930692389   21.64114302914287   -0.74527405874847
C          -5.75442550856867   18.46596612324234   -1.51472587370088
N          -5.98508692181116   17.92544995958047   -2.50100970950254
C          -4.95181015976136   19.45318283684579    2.09554040188668
C          -4.55000135800787   18.54617973490081    3.11756487769288
C          -4.38283771721702   17.20090619013992    2.54623485661732
O          -4.01659222008248   16.20295325442066    3.13242275420248
C          -4.37072465165949   18.94823396407561    4.40975423675556
C          -4.59602977485731   20.30129796046617    4.74766234919031
C          -4.99678044048289   21.21585297724923    3.73108808473463
C          -5.16819847781137   20.77145510731579    2.40020685479212
C          -5.22038563616293   22.56337661167758    4.07998710566626
C          -5.05773421343931   22.98882613918152    5.37022752968734
C          -4.66206286638759   22.08776617901472    6.37006438046046
C          -4.43640540614770   20.77278023374353    6.06546564506078
H          -3.10109375473947   -2.97068437975120    0.54163971307350
H          -6.99266261967966   -0.01024310314000    1.52620947666371
H          -8.49991643010026   -1.86859068206173    1.13784951493689
H          -8.88056817449096   -4.23184003133989    0.55872251219621
H          -6.97410161358690   -5.71606142409421    0.08016441629805
H          -4.67102848873792   -4.84795660267085    0.17374905853377
H          -0.99680756112028    1.85715998379821    1.12874105899574
H          -6.19161118059463    5.01025825931195   -1.43654726750094
H           1.46658356762449    5.02500132416575    3.03194909580386
H          -3.73451494430129    9.58187103286338   -3.77635487792169
H          -2.16585716656461    9.06473548268806    4.93460744060482
H          -1.18289721837797   14.62957453536873   -3.01115437625515
H          -6.64754788458497   12.47910141271807    3.62477246575543
H          -4.36383330654762   16.71793335758334   -0.88855650401935
H          -4.06554609067077   18.24050393648530    5.16625774005210
H          -5.46504378339924   21.48923105177010    1.65203221293665
H          -5.52591761684060   23.25291505627764    3.30675950145041
H          -5.23338772930090   24.02250128529648    5.62782046679934
H          -4.53720483798581   22.44082884811052    7.38281148778609
H          -4.13184074150854   20.07440237841109    6.83125587013499
