111
 SCF done       -191.597100995312          0.000591962613
C           2.91080422690247    5.32699166841731    4.03309788673618
C           1.74981991349199    4.82777584928454    4.56741587056848
C           1.32023751122352    5.07308891386863    5.88510973394144
N           0.90597602137037    5.26736627238388    6.93839650373088
C           0.89674662647448    3.95258882626562    3.86551005549499
N           0.20698258327775    3.20221884396864    3.33563574242346
C           3.98268092734215    5.97242007562118    4.78052638151615
C           5.18428823376606    5.87545855236090    4.01815699319470
C           6.37003963048958    6.36048343322580    4.48775042963201
C           6.40622691610963    6.98447968608828    5.75571264413629
C           5.20583756868911    7.09690895678700    6.51506464130261
C           3.99249481409480    6.57732444918739    6.00775690319718
C           5.25609704871593    7.72780727653587    7.77447445485846
C           6.43447218848045    8.22186591875601    8.26400542237229
C           7.61596791351963    8.10958075761390    7.51638902701800
C           7.60197171631165    7.50371001680756    6.28931533448899
C           4.89391339974783    5.21845062041909    2.72925506717857
O           5.67031917323481    4.91670027407658    1.85093924455604
C           3.41552559089242    5.05794296378099    2.70454286885095
C           2.77005562817884    4.81016986813111    1.53272470963034
C           1.40818735291491    5.03896162492958    1.22678557676392
S           0.47394663835432    6.26019825540242    2.04469254236189
C          -0.93774699028409    5.89274747258885    1.10016255603347
C          -0.67814767674620    4.86475176516990    0.20214105037646
C           0.64749851190018    4.40763311288642    0.25481975615606
C           1.16380170782717    3.28372906134415   -0.58197592548866
C           0.20333635067898    2.94709003897136   -1.71923646055602
C          -1.24287344803851    2.87932146803244   -1.20757694912102
C          -1.32751076243785    1.84814829603227   -0.10478971771298
O          -1.52919479208990    0.68167736016154   -0.29119044413770
C          -1.68704236857866    4.25921461435899   -0.72091103344721
C          -2.14149039874196    6.63090039493612    1.29148651351863
S          -3.36474599917645    6.65237196481995    0.04915521111424
C          -4.38129434739907    7.69602252587106    0.99278901929240
C          -3.79389641048776    8.00932165382407    2.19576082017104
C          -2.52191104677091    7.41857232227340    2.36585847133275
C          -1.67352917859550    7.67544365993617    3.56840430346667
C          -2.41588101569512    8.43848547029540    4.66506509455285
C          -3.27508689454441    9.55179410936826    4.06666705212864
C          -2.46777734230052   10.54492322253676    3.26932896600727
O          -1.27678691398868   10.66588089983775    3.29461498505455
C          -4.38471928748427    8.93307070286589    3.21337185193842
C          -5.62304131536838    8.13964614762430    0.41169047913097
S          -5.58158165322057    8.87497238140490   -1.15794838635433
C          -7.32472031621480    8.98188493198616   -1.20400929145555
C          -7.87805813487413    8.50328387416166   -0.02559929112185
C          -6.91308597414479    8.02563382687510    0.88535935494536
C          -7.26959867404959    7.43202352610713    2.21084257654813
C          -8.77394829099359    7.20454012737087    2.34597684803692
C          -9.54231262882606    8.41713564936883    1.81927780892980
C          -9.16680629276831    9.70297328274237    2.50981747905983
O          -8.50614959834436    9.80970407251329    3.50380012641835
C          -9.32977853069394    8.53244431384262    0.30805377325547
C          -7.90192805438194    9.61459844426349   -2.33095680324038
C          -9.08173799059101    9.32560639378381   -2.95408190662855
C          -9.67315569216585   10.11387023559955   -4.02095998747018
C          -9.41339524699440   11.43421187465762   -4.27745284253841
C         -10.02788801513521   12.17209663887304   -5.30994196472777
N         -10.49241368689680   12.81701466813078   -6.13821073787441
C          -8.54407916600525   12.23527311750128   -3.50753801550655
N          -7.88142301341836   12.94675332609014   -2.89666482580790
C         -10.66621329514156    9.28586647279172   -4.68970051340344
C         -10.75471150886876    8.04402439483548   -3.99775342624777
C          -9.79386375401970    8.03083387335922   -2.88085375850760
O          -9.57459769191552    7.10386408487661   -2.12557909976096
C         -11.60792417796037    7.05696242870135   -4.39817284708109
C         -12.42643707497876    7.27100635539489   -5.53025427303953
C         -12.33937704591061    8.50887104461448   -6.23042981535390
C         -11.44650020287786    9.51356121380150   -5.79177754467758
C         -13.15398043236751    8.70685899649193   -7.36355563207067
C         -14.01468940784637    7.73058850793080   -7.78629374764649
C         -14.10007734509000    6.51253028800544   -7.09597309906332
C         -13.32357368127598    6.28807334959950   -5.99140477488867
H           7.27156564272934    6.27063174670182    3.90007602340783
H           3.09456705781779    6.68109793888698    6.59720685016645
H           4.34410294618571    7.80973821417242    8.34741599184002
H           6.46269768861160    8.70195670988046    9.23073859464443
H           8.53708246046149    8.50562647324497    7.91711520084557
H           8.50866700763766    7.41468722867744    5.70887202205459
H           3.39726690786902    4.46472875617950    0.71629250231297
H           1.30265714635382    2.40735226105328    0.05864846585367
H           2.14531816948681    3.54385291125797   -0.98710562762454
H           0.48241403689039    1.99172366527130   -2.16497160806981
H           0.26073533863578    3.71567142449531   -2.49334295451548
H          -1.88785076987708    2.54981927485929   -2.02827171092542
H          -1.17339665957159    2.25191488080868    0.91298914855035
H          -2.65249191001845    4.17566065112381   -0.21574941642921
H          -1.83044365585699    4.91585021099866   -1.58514316221071
H          -0.80606917349158    8.26538454400330    3.25633530080489
H          -1.29515242104592    6.73107210648923    3.97021896692949
H          -1.68501626248070    8.86054861341238    5.35482170350017
H          -3.05995774133263    7.75826813691200    5.22503062941160
H          -3.74224233709107   10.13410481304048    4.87159048681357
H          -3.09653916109564   11.20533623864910    2.63800192628896
H          -4.98015631927370    9.70442070396396    2.71949517103666
H          -5.05021615219290    8.37080828787867    3.87447897625099
H          -6.95658660974083    8.11784074244537    2.99992004308041
H          -6.72541596526077    6.49572229872312    2.35333349733322
H          -9.01602959201411    7.03386583126654    3.39548769608434
H          -9.07604832585253    6.32547118747771    1.77457613929916
H         -10.61617470047454    8.28777840282857    2.00626328964074
H          -9.58475097800052   10.59852322502617    2.00626458153131
H          -9.79135745776712    9.43774057933625   -0.09615325420987
H          -9.80809985146730    7.67899953418923   -0.18494495872172
H          -7.28055727815528   10.38500700925277   -2.77527457794457
H         -11.65655284004377    6.12165531345247   -3.86035952285782
H         -11.39416456775431   10.43704877028340   -6.34669408708968
H         -13.08468195532747    9.64669175510625   -7.89138654097098
H         -14.63399051399840    7.89162548083412   -8.65582111261319
H         -14.78341186128286    5.75245412515123   -7.44392687276499
H         -13.38470476999529    5.35154888996551   -5.45643681804006
