77
 SCF done       -161.320338116599          0.000558177103
C          -1.62023586673771    1.38004638412983    3.14136163759735
C          -0.69397583471648    0.60077636501956    3.78901782309082
C          -1.01901589700382   -0.40163284446914    4.72397071711716
N          -1.22431588567857   -1.24532232565385    5.47533841336463
C           0.69818106530780    0.74553956249255    3.62955772657675
N           1.84034240086328    0.84494303840858    3.55290948677629
C          -3.05475748250487    1.40267326834490    3.38846684299564
C          -3.62345460448319    2.48496368015736    2.65693606740770
C          -4.95396549629936    2.77816044720578    2.72515703263469
C          -5.79178831644255    1.98728316888838    3.54405997162772
C          -5.23214722326396    0.89617958301894    4.26928454204697
C          -3.84921882438578    0.61597164829924    4.17807213254243
C          -6.07854026677730    0.11313343453124    5.07978630824242
C          -7.41446120766172    0.39447197864754    5.17456671603484
C          -7.96447103636882    1.47022431269788    4.46226212432846
C          -7.17038087460934    2.24944604177681    3.66478977694786
C          -2.57085954544404    3.17309892513194    1.89455887346285
O          -2.70626930808044    4.07482312237635    1.09378258666527
C          -1.31571797660288    2.43516341218021    2.20450417623462
C          -0.12643909968771    2.63079957858091    1.55361900709323
C           0.23878787969085    3.80159249006377    0.85883650185122
S           1.27215519783075    3.66080888165502   -0.52906990324319
C           1.13644322357549    5.33918206252675   -0.91924304725564
C           0.34370561242563    6.00721289018332    0.03765422963796
C          -0.11448106502923    5.14734175697317    1.08092939068123
C          -0.80599749958741    5.69372997936398    2.18972056213635
C          -1.08495268422555    4.95466473603186    3.45339995817269
O          -2.13777289127230    4.97636184029968    4.02658193422034
O          -0.03187336454387    4.30415571917397    3.99313113420337
C          -1.18634392463955    7.01555296250417    2.13948085842698
C          -0.82257773864790    7.84066969885772    1.07448054143682
C          -0.03292282024210    7.37399435389504    0.04630515705075
O           0.39126419951175    8.18752952837932   -0.94819590823747
C           1.78647331740548    5.89098416279755   -2.04011973357756
C           2.55644279077028    5.18175687027203   -2.90937998914156
C           3.25990085004666    5.74407554390433   -3.99547407340061
C           4.05480894791482    5.06205339889048   -4.90791887946927
C           4.64045550649567    5.91545153141269   -5.83720060746409
C           4.29362077875888    7.26426730927519   -5.63554358751459
S           3.23961092234530    7.47633414098767   -4.30924087647297
C           4.95529439543153    8.05154807968449   -6.60897281695856
C           5.72010314818847    7.20144609398863   -7.43120389450529
C           5.54345766744478    5.83263140670530   -6.97760795892254
C           6.10445935687178    4.70673842188773   -7.50439747107559
C           5.85489204129812    3.42448484320681   -6.97099986878635
N           5.65268231263759    2.38265422475513   -6.53736174058325
C           6.96999761294501    4.75042895451089   -8.61795249143836
N           7.67288495668325    4.78594408070380   -9.52296228275568
C           6.42660961777910    7.89082111478640   -8.41674777436775
C           6.20511276161323    9.25325283430145   -8.34432263944392
S           5.10069834016134    9.69504401990127   -7.04248401709301
C           6.74949675794817   10.23933402455697   -9.14416041475484
C           7.20723029997734   11.14386505949255   -9.81372173408015
C           7.74259427488141   12.16403981801157  -10.57985027132431
C           7.53010448706398   13.52149284691987  -10.42115780647254
C           8.21934290347696   14.30687342125209  -11.35855898981116
C           8.96758530573575   13.55972100023901  -12.24546054103963
S           8.81494287928658   11.86081872853367  -11.91436440127261
C           9.76253764246244   14.03322613425072  -13.29144138429180
N          10.41357306275279   14.42008811232935  -14.15290931191601
F           8.15784373047018   15.63565806129548  -11.38794349177127
F           6.74541463491539   14.02820691743569   -9.46673805053731
H          -5.36044752059300    3.61076127103467    2.17107299782573
H          -3.45198232390710   -0.21681658465548    4.73708287052727
H          -5.64928116895990   -0.71229798280057    5.62864640235598
H          -8.05420178494199   -0.20983559592178    5.80028110282257
H          -9.02046457300319    1.67886526540622    4.54883645418080
H          -7.58880284789229    3.07970369849979    3.11480456234703
H           0.58414728131318    1.81388638605535    1.50769457492244
H           0.77156728038357    4.36442110941318    3.45930359286765
H          -1.75598639445127    7.42232028048494    2.96044835649049
H          -1.13906979343089    8.87441260000237    1.07395784700657
H           0.03235901209586    9.07556604848357   -0.81955508546698
H           1.66273111781723    6.95373692114393   -2.18942041718096
H           2.66986372519814    4.11302342679671   -2.77704077205727
H           4.18887706972067    3.99609988551306   -4.87496529964223
H           7.07372676782879    7.44615243268042   -9.15078345273494
