126
 SCF done       -226.630630077568          0.000826691122
C          -2.60137163215200    5.03032406135736    5.69203948376424
C          -1.80705645254665    5.19342731627665    6.79988503188265
C          -2.21902884493404    4.90697911089819    8.11574595841889
N          -2.49215508026764    4.67183289279175    9.20615104563332
C          -0.49781240936180    5.71072024613426    6.75459501194508
N           0.56265387783730    6.15274152277799    6.77117426259860
C          -4.01052529349257    4.66039009477827    5.68891519663299
C          -4.50901419289912    4.80034335919589    4.36257498619031
C          -5.81488885401663    4.55851701705205    4.05343264896509
C          -6.70055128227464    4.15567334876886    5.07855454641180
C          -6.20716648078435    3.99945317022459    6.40554432969696
C          -4.84704548699984    4.25874678978890    6.69505916035973
C          -7.09957592730272    3.59090832385633    7.41708165429817
C          -8.41734604707364    3.35225498387924    7.13513508184722
C          -8.90281973660422    3.50993242013865    5.82889769709007
C          -8.06232472604325    3.90333731509519    4.82286376840535
C          -3.42433531497054    5.23752492260889    3.47038314775904
O          -3.47655519418521    5.36701997445883    2.26386458907499
C          -2.22219777419780    5.34801298324178    4.33617471326528
C          -0.94768161111444    5.53359391932658    3.86533712542586
C          -0.62817911545631    6.09282136269210    2.61089566113062
S           0.77390882292139    5.52145384394459    1.75411137637233
C           0.39387003904767    6.41908971696306    0.33731977871857
C          -0.78018052809411    7.16496407893469    0.51583629636294
C          -1.31982425569218    7.03858801434824    1.83621211579404
C          -2.43363933615127    7.82662029858457    2.22321895144408
C          -2.89448329984301    7.99034279545241    3.62876585406989
O          -4.04810306118162    7.98964640174879    3.95908804245283
O          -1.92918493496948    8.23673676540572    4.54048702017893
C          -3.11457660404882    8.52030063446708    1.25139458927739
C          -2.69056293624142    8.51336233677490   -0.07943866688066
C          -1.53225639423088    7.87614536032403   -0.46057648573911
O          -1.11712431240575    7.88950389930232   -1.74870151328290
C           1.25866076189998    6.32599245273393   -0.81465777165794
C           1.56318586727426    7.44417099320851   -1.55188613684971
C           2.35177546080148    7.33822267489481   -2.71962419722991
C           2.72309351544654    8.25652378193691   -3.69344158649251
C           2.47946937194126    9.72790883442465   -3.82465467035596
C           1.38273584421268   10.30013989738029   -2.92085850188966
N           1.11885509370465   11.67797764966533   -3.30801407333998
C           3.79984401539516   10.51344797507313   -3.62002401709123
N           4.59655243784208   10.10377938970381   -2.46605050909023
C           3.47663752425684    7.52157941096885   -4.69093115932398
C           4.02331386230567    7.90774550138332   -5.86013129478625
C           4.69805915657200    6.93745653412072   -6.76769129548048
C           4.81824549108287    5.54805727826368   -6.21969017146420
C           4.27332560100132    5.18086888163369   -5.04684849600030
C           3.56572338005873    6.12255074762508   -4.25989448233378
C           2.87509283133115    6.01884372211289   -3.07183040890019
C           2.61650378795407    4.90519294948225   -2.23863264275324
C           1.83105666220910    5.05450379632891   -1.14545903127560
C           6.04916636756673    7.44683578510233   -7.20763273433202
C           6.95105588116659    7.92548569302187   -6.34629159350119
C           8.23448000259720    8.43152115946207   -6.73365030159254
S           8.99629900599557    7.86855148857764   -8.16682655254954
C          10.47885470529838    8.70628101515886   -7.82694935184581
C          10.33526894943901    9.49581199310856   -6.67572617847880
C           9.05481455908088    9.34509573331622   -6.05685116935033
C           8.72936204596414   10.10813776220224   -4.90564645965132
C           7.32646385836026   10.24948177262472   -4.43848204987261
O           6.40363697337255   10.35769661273970   -5.21929396560358
O           7.19059343190730   10.30373045491261   -3.12971889767407
C           9.70473052986795   10.89845802680186   -4.34433945311218
C          10.94851046848258   11.06411295695696   -4.95905061158051
C          11.25136445820522   10.44449075740770   -6.15173950577144
O          12.35535997493647   10.77046992786230   -6.85936194698352
C          11.56353251622777    8.49851227341153   -8.69948833875155
C          12.88887745073622    8.51338022763415   -8.35943293014007
C          14.00852688670067    8.53728004693085   -9.27195529512098
C          13.95410808618531    8.67695633737296  -10.63692682171264
C          15.08710614225412    8.72934681018160  -11.47336689034165
N          15.96586916780985    8.76979312134712  -12.21204722324863
C          12.77384273866423    8.80029609738384  -11.39710066508752
N          11.86208869332585    8.91075773203835  -12.08757356391936
C          15.23083014865608    8.46950534020946   -8.47726299235126
C          14.87409031746023    8.38402861199883   -7.10152450912281
C          13.40322456909636    8.37203599939887   -6.97660745042320
O          12.76665084757694    8.17322360887280   -5.96073130655763
C          15.81565637471903    8.31481001084236   -6.11681251145756
C          17.18516375727268    8.34280657466832   -6.46720215601893
C          17.54973767384365    8.42762078936729   -7.84112342762148
C          16.55079896344457    8.48573518850790   -8.84049547047177
C          18.91740174757327    8.45429730704866   -8.18088431144224
C          19.88119410732106    8.40206811599224   -7.21093864685434
C          19.52126451573951    8.31845702792306   -5.85793830510785
C          18.20205388122118    8.28951868118933   -5.49420612641767
H          -6.17041774169093    4.68360315200913    3.04171580360799
H          -4.50072246431268    4.13143140851818    7.70884545983724
H          -6.72194000155838    3.47332774011863    8.42232116054535
H          -9.09323130340479    3.04147744842684    7.91791916428435
H          -9.94579863959704    3.31900411602819    5.62365489322866
H          -8.43045925591727    4.02772316221221    3.81480797771806
H          -0.11319120382207    5.17345753453426    4.45538797797896
H          -1.03786354555181    8.21154520099511    4.16753330462694
H          -3.99273304564634    9.08057229038085    1.53206462422577
H          -3.27916304684696    9.03182986769603   -0.82398247900775
H          -1.79978586117908    8.29333178538712   -2.30090763032158
H           1.19653644686566    8.39860383238147   -1.21999391568155
H           2.16874241408798    9.92149981822096   -4.85983561059910
H           1.72495189866985   10.32734751420715   -1.88256829885674
H           0.49370680937277    9.65189351255037   -2.98026881525991
H           0.76647097413991   11.71921696521879   -4.25858907310164
H           0.42296216603835   12.09344734568887   -2.69941317103557
H           3.55572084385346   11.57152023072320   -3.51918478397583
H           4.42937232544761   10.38295257781303   -4.50089818187915
H           4.59612183146936    9.08768730794123   -2.40316466522884
H           4.19918369689660   10.46145995625066   -1.60408856091256
H           3.98893408048213    8.93018783063672   -6.20744391876395
H           4.06902363183664    6.87927016604483   -7.67087009139863
H           5.36660165637610    4.84666622021554   -6.82943352379158
H           4.36645274651924    4.16551773241499   -4.68988570833384
H           3.03688208578771    3.94399187310255   -2.49379945462876
H           1.60028652332325    4.21267176282376   -0.50955842309536
H           6.27367275403723    7.41406916165175   -8.26452988987406
H           6.71633125578041    7.95638530726616   -5.29237328251774
H           6.21234718491730   10.36645987170757   -2.85317372882092
H           9.47694356807352   11.46033918162011   -3.45195236366131
H          11.66348238220132   11.74930055361395   -4.52378462986172
H          12.88050895824200   11.41188346601070   -6.36248647465551
H          11.29373234269377    8.25990552369544   -9.72091797151692
H          15.52094763833555    8.24426341730085   -5.07996409244567
H          16.85951507496756    8.54031323839263   -9.87226483247252
H          19.18873864277283    8.51931699937061   -9.22445746065455
H          20.92634360777196    8.42508583660952   -7.48122841924018
H          20.29431122094022    8.27632248599423   -5.10511427503504
H          17.91948526404856    8.22376381077468   -4.45344893748649
