128
 SCF done       -240.901331568491          0.000503525619
C           2.51032882026083    2.35757564090316   -2.89056392946100
C           1.31437582861047    2.72010135091483   -3.46042705762533
C           1.04416584946883    2.61587661522585   -4.84041418618668
N           0.79973313908267    2.56533664018970   -5.96051400526914
C           0.20142017296958    3.14409636550285   -2.70624161098709
N          -0.72183452424041    3.47248358917000   -2.10916926445249
C           3.60188996252125    1.66945431871227   -3.57388438004710
C           4.44083068875346    1.06562793357519   -2.59192600519382
C           5.53067994011792    0.32056417200017   -2.93771441793706
C           5.84467442800701    0.15280640639947   -4.30538588725467
C           5.02015554978912    0.76739142886563   -5.29153940103939
C           3.89168160999067    1.52707376989773   -4.90376298934158
C           5.34818286213295    0.59765808356375   -6.65169444334217
C           6.43564049967324   -0.14597529927833   -7.02221827845474
C           7.24588530276813   -0.75182101894332   -6.05063050277619
C           6.95648489786648   -0.60570436689971   -4.72095807808885
C           3.93368251497285    1.39742908572672   -1.24984445033140
O           4.34721588034336    1.02010220811801   -0.17792134188257
C           2.81341127893798    2.35917991969849   -1.47903087047390
C           2.32090107981886    3.04704579388087   -0.41269388307571
C           1.55711586341994    4.23657277675683   -0.34241093618601
S           0.56566191616383    4.47808850585627    1.06489873400028
C           0.07212649669228    6.04293714545508    0.51928077297839
C           0.67994718779669    6.37211236660237   -0.68255023462486
C           1.51763710613682    5.35412367803061   -1.16903808738100
C           2.34733039900344    5.52054428223996   -2.39958985610915
C           2.48756519893306    7.00370409068079   -2.76864655429123
C           3.31074071302992    7.68867172421950   -1.79824362979939
N           3.95010995153607    8.22945031512698   -1.02118154284267
C           1.08371991319134    7.64781701218390   -2.80908289618464
C           0.24384086736944    6.89921934538996   -3.71929508152696
N          -0.40421775372231    6.30193384905910   -4.44550397769599
C           0.47700391710420    7.67167398972903   -1.39871645067372
C          -0.84337315154980    6.79424859992541    1.31665927633974
C          -1.10235273025985    8.13569312769847    1.31336018630740
C          -2.04925805647011    8.53706532917372    2.28556044962270
C          -2.49203183497027    9.84477534240721    2.57073240655882
C          -2.09843247146075   10.99801452557790    1.78902839161231
C          -1.88888884201697   12.27547464953786    2.22584639312479
C          -1.60368686709356   13.17575139019306    1.17734579548435
C          -1.59788867149536   12.61303591146037   -0.06585192755566
S          -1.94209948189343   10.92127044159849    0.05221069692257
C          -1.36610301100109   13.26564747297530   -1.37864902433752
Cl         -1.29456531115275   14.84442864246728    1.45793554771019
C          -3.36724953506409    9.97714320582343    3.64537075135094
C          -3.83414765386935    8.88167225746519    4.41241758515179
C          -3.39125930012556    7.57492194829920    4.12353442136509
C          -2.51065649609183    7.44175260507104    3.05676693758283
S          -1.77893849789991    5.95279764839898    2.53593674604351
C          -3.82970978569597    6.43997536109327    4.91023915564196
C          -3.96243039279787    6.35462109906744    6.26688278910865
C          -4.43156860835337    5.09175610253069    6.68849445734543
C          -4.66292122392753    4.20846347234505    5.67392100473544
S          -4.28603685664512    4.93986712427379    4.15114051991945
C          -5.15620073313740    2.81064996360953    5.75063248177779
Cl         -4.69084900667409    4.71925535746927    8.35145161924575
C          -4.77187411310299    9.27960470231015    5.39678160804357
C          -5.00891895836322   10.62497162094316    5.41724978411758
S          -4.07953105183224   11.46677353649591    4.19075729774730
C          -5.83502493448589   11.40646598509870    6.27779011525172
S          -5.57145394390776   13.11769558425246    6.31808105962102
C          -6.83866520746728   13.34204587263119    7.48911630009039
C          -7.40974936049335   12.12307357328384    7.82735241287404
C          -6.86037517683902   11.03351674204536    7.13261200650672
C          -7.33551465805770    9.62603577124137    7.31898848242054
C          -8.67314856969099    9.56396336029126    8.07324547034678
C          -9.77479248923401    9.89599109599186    7.19590871547768
N         -10.65423669869583   10.15261359294984    6.51428689407663
C          -8.66463783336486   10.53233023823081    9.27652650446902
C          -7.54684563271934   10.21332704219586   10.13668490951686
N          -6.64977289197913    9.96569179546453   10.79913497453141
C          -8.54756760237786   11.98191059094267    8.78495986782275
C          -7.11285449608257   14.60821474986000    8.05980891882780
C          -6.80427722883836   15.83796134864778    7.56953460300371
C          -6.70051116255741   17.00136765588872    8.49366487168033
O          -7.12085365541025   17.06585842395843    9.62585338321802
C          -5.92056015277936   18.00947116348656    7.74920826529571
C          -5.42248280914810   19.20429677974558    8.18304279515223
C          -4.66277206529882   19.99804811568686    7.29459490119560
C          -4.42803407514680   19.53394394877025    5.96698482779339
C          -3.65993749019933   20.32603049457176    5.09161904058668
C          -3.16112584015078   21.52080058174983    5.53045062408377
C          -3.38321227578972   21.99607166975971    6.83024800405928
C          -4.12493325217435   21.23898601593316    7.69369514647825
F          -2.42779273612512   22.27910177428539    4.69577533460789
C          -4.96490157490089   18.29706623019665    5.54034248624320
C          -5.70411163745697   17.55077362745598    6.41683312092672
C          -6.39555727245452   16.27718683496806    6.25107452184866
C          -6.82188991992058   15.74888208388888    5.06179313834539
C          -7.73552799829640   14.67600668410769    4.99324977986206
N          -8.51461162349074   13.83629874315364    4.92161261047613
C          -6.47046826079280   16.27014692176853    3.80095500965736
N          -6.19735601153117   16.65214796986793    2.75377548961962
H           6.14687096326747   -0.13560169637236   -2.17725775387038
H           3.28825401924703    1.98573683180861   -5.67156149555559
H           4.71947344253146    1.06298819817467   -7.39660859017290
H           6.67695299216459   -0.27201100933991   -8.06700306054460
H           8.10015354923103   -1.33483584121181   -6.36053302195853
H           7.57635955203056   -1.06982967381270   -3.96786566012456
H           2.60981229299805    2.63315444786828    0.55043436331335
H           1.86923002639697    5.01382935785860   -3.24653436876138
H           3.33049469310421    5.06183557838250   -2.25533640371101
H           2.97068299385538    7.09281087073251   -3.74945605421057
H           1.15298534838863    8.67456248001164   -3.18927811143690
H          -0.59095807702899    7.89954206201880   -1.45616324597236
H           0.96478234468014    8.47255262924061   -0.83318208303541
H          -0.59397292875838    8.83753241441193    0.68418044589706
H          -1.89643196743307   12.57096928184235    3.25824233454745
H          -2.31569852770981   13.47891380620044   -1.87134070984964
H          -0.78403183906960   12.62059308730226   -2.03347009052752
H          -0.83703013406823   14.20459827479885   -1.23298644585312
H          -3.69005652422372    7.13742232646677    6.95062643639717
H          -6.05869670775316    2.68855461984115    5.15306642320581
H          -5.37704035356397    2.55450434752637    6.78378562157356
H          -4.40598764056366    2.11951661864618    5.36760566451474
H          -5.23683876398003    8.57954626240125    6.06144092638300
H          -6.58852574587039    9.07126467191681    7.89731361551295
H          -7.44120993376742    9.13951283127093    6.34541259485602
H          -8.83472227904820    8.53755941106708    8.42710872337633
H          -9.58756111706088   10.41343384747505    9.85693481294925
H          -8.41488917884887   12.65468041584232    9.63624693893554
H          -9.47748254186872   12.26467949966034    8.28044082487481
H          -7.53349001132705   14.60377886043775    9.06099106330167
H          -5.60334283149754   19.54022619100044    9.19308807965509
H          -3.47188271687936   19.99262111040088    4.08301853045061
H          -2.96440014829186   22.94662243623084    7.12023066352458
H          -4.30874335654533   21.58393932871208    8.70006120995321
H          -4.76810727055943   17.96212990299367    4.53395260819860
