100
 SCF done       -199.584796582850          0.000591828230
C          -1.48701585736101    0.89495801336065    2.38553147370145
C          -1.10653336683782    0.66512219664439    3.68255463076953
C          -1.43826462975301   -0.49602386111967    4.40974014638173
N          -1.66003753414976   -1.42551232138172    5.04613053321966
C          -0.36458320515121    1.57651303028063    4.46077072729950
N           0.22355875842080    2.29003278164739    5.14215319978469
C          -2.36054176413865    0.05308970971482    1.58090020853843
C          -2.65706222926712    0.73562053639226    0.36642831805144
C          -3.48155318770131    0.19917590295136   -0.57911746169829
C          -4.05862472310458   -1.06965282481026   -0.34834800422818
C          -3.75933418430622   -1.76355852049102    0.85962771379896
C          -2.90076841476071   -1.18217557604126    1.82075190764392
C          -4.33805188465029   -3.03062963638238    1.07585890398194
C          -5.17489024604332   -3.58642804114076    0.14664336206176
C          -5.47043554045594   -2.90171352096772   -1.04142628183956
C          -4.92455304339489   -1.67011786795475   -1.28312188748344
C          -1.96440308436833    2.03090980987096    0.34362070051438
O          -1.92217822099883    2.82814293156920   -0.56891985192342
C          -1.20457330654851    2.09436829832217    1.62661905714668
C          -0.27586822372317    3.05126850776403    1.91847866596966
C          -0.20420576675341    4.31643443904360    1.28400003019307
S           1.34116260231322    5.03066057820606    0.97173744361959
C           0.65520666179158    6.35782397726589    0.11572404840391
C          -0.74029947517546    6.26040775128781    0.07028523774279
C          -1.23594556407219    5.13706638339357    0.79877763710638
C          -2.63350965659956    4.97745906752033    0.97109379986279
C          -3.23301639617068    4.00160256461242    1.92590638332153
O          -4.11364728674847    3.23651050009691    1.64750141280800
O          -2.75982523376702    4.06814267784123    3.18710410774593
C          -3.48134743179829    5.80138442658224    0.27060100876470
C          -2.99644874872405    6.81990736221817   -0.55584758693305
C          -1.64958555900695    7.07586951745655   -0.65510976851872
O          -1.15493512635292    8.05646055374079   -1.44185404915559
C           1.51319728238703    7.36390347645134   -0.42231607383117
C           1.33963509126734    8.74144926517647   -0.45682004243027
N           0.26458824668003    9.37995959238765    0.22534938562177
O          -0.21414557651890    8.79658034262033    1.18050348281064
O          -0.09496583694633   10.47390299381645   -0.15321714718345
C           2.37420482518431    9.44581983160024   -1.12816592303224
C           2.36580138429660   10.91274254010286   -1.37712371998891
C           3.36778684983744    8.58978645596722   -1.54873305074178
S           2.99931599957354    6.92614431869777   -1.18606929262937
C           4.56588539031310    8.90452386427471   -2.27098374640339
S           4.92006587577236    8.02582028065602   -3.70988355032334
C           6.18402186048506    9.11656429011271   -4.16706517537788
C           6.40065594544677   10.06351456104935   -3.15993086559677
C           5.49338295634579    9.92890237992141   -2.05981799168691
C           5.63380939474094   10.77970607771331   -0.92988150615964
C           4.96856223242285   10.58114759289670    0.37419479212245
O           4.71391412617517   11.46706950151973    1.15036886257117
O           4.75107094601536    9.28958444452518    0.67741151145663
C           6.55821424494062   11.79928373505742   -0.98917309338593
C           7.44039315501047   11.93421165693237   -2.06212407485695
C           7.42776880565440   11.04419866827617   -3.11297784787429
O           8.38426131035657   11.04548906017733   -4.06165363432945
C           6.77686186685601    8.95579147123127   -5.44141025514358
C           7.13333263290540    9.97230888225684   -6.27837935065133
C           7.86264005094126    9.84690820744876   -7.52302383683418
C           8.56794721326637    8.74822181255976   -7.94140528374079
C           9.29614723209152    8.68981277904222   -9.14734365194857
N           9.90186268466228    8.58128060373993  -10.11662821791337
C           8.68692724257918    7.54508537776502   -7.21536628515821
N           8.83920290137142    6.54424364152918   -6.67324093100018
C           7.79269129520890   11.12994142199297   -8.21152860752369
C           7.07836999685991   12.04719531748634   -7.38877348596791
C           6.64595797711174   11.37029493983690   -6.15336789421260
O           5.95162292533517   11.84268313509228   -5.27619564958003
C           6.85092090606641   13.33605967323396   -7.77605919497324
C           7.34035563665991   13.77735830608861   -9.02618551503100
C           8.05231773452697   12.86466938376211   -9.85672202712221
C           8.26979026065551   11.53413703086094   -9.42995512455853
C           8.52848649086241   13.31293062432482  -11.10541202992010
C           8.31336315335266   14.60060218616431  -11.51567755575639
C           7.61268205747108   15.49853773816522  -10.69688842173670
C           7.13753651501542   15.09593493897071   -9.47812002877189
H          -3.69826932209331    0.74124317186741   -1.48724698926813
H          -2.68996531363060   -1.73160117952575    2.72485641746932
H          -4.10959348745723   -3.55304031923991    1.99327719318669
H          -5.61456760392532   -4.55682589249460    0.32249605122420
H          -6.13293435145266   -3.35478588848635   -1.76387117009250
H          -5.14927410660350   -1.13766777508155   -2.19573840194092
H           0.50178197437478    2.83359523098028    2.64057595004478
H          -2.08702472853727    4.75238714733461    3.30591585358858
H          -4.54623228002536    5.66005640307007    0.37120181676403
H          -3.69603738250589    7.42955785735960   -1.10989996376094
H          -1.87734950396433    8.54053139475366   -1.86448804525098
H           1.42144665678380   11.20279192743694   -1.83275159065399
H           3.18515714368642   11.19954775442567   -2.02970259670218
H           2.45269420431597   11.46569796819174   -0.44215218926734
H           4.39149181348715    9.22449901676805    1.57676936827828
H           6.63798404797370   12.46856523538706   -0.14624792843671
H           8.18567946860708   12.71704396235759   -2.03750675882890
H           9.00386402189679   11.76981173812375   -3.90010947223191
H           6.87171622496637    7.93360277691998   -5.78734297900846
H           6.30293547089398   14.01207487796271   -7.13625232527843
H           8.80325949147858   10.86401464295926  -10.08530289987198
H           9.06803749297178   12.61797082079402  -11.73196723556668
H           8.68182690987705   14.93424405583516  -12.47409824056736
H           7.45038241345153   16.51045021571836  -11.03676945150069
H           6.59621033155177   15.78271310776448   -8.84381813022448
