105
 SCF done       -209.903698772384          0.000932608180
C          -2.74850882220705    6.06071148959405   -3.75558920799140
C          -2.16243747450992    5.41044951604585   -2.69728392747350
C          -2.87524594523783    4.91685832189731   -1.58771216887296
N          -3.39856111551293    4.51414202733042   -0.64812851290247
C          -0.79045356804136    5.09894958107855   -2.62401786973645
N           0.31546005777436    4.80304723640544   -2.52819242100723
C          -4.18848738961282    6.14948248714925   -3.97990600882553
C          -4.41518674155281    6.40084850559311   -5.36423051878253
C          -5.67481398997906    6.48828188436283   -5.88110620432213
C          -6.78499296580686    6.33655167702826   -5.01927152333659
C          -6.56499412720116    6.10619895212999   -3.63075056651017
C          -5.24765714289451    6.01353990591343   -3.12457019425411
C          -7.68068031657314    5.96570178090160   -2.78096200075030
C          -8.95345236491275    6.04341450642219   -3.27725913057371
C          -9.16913739861016    6.26767810973714   -4.64497849850266
C          -8.10793933404715    6.41102175530597   -5.49721143405923
C          -3.11797009251782    6.55088775727710   -6.04976534732387
O          -2.91490226708953    6.74175205550553   -7.22709531732143
C          -2.09641675575150    6.49906748035690   -4.96818480028251
C          -0.81721175877056    6.89501781766943   -5.24549041640341
C           0.16231719168901    7.32921919069139   -4.32949560600997
S          -0.33061981245776    8.00529936634145   -2.80542955390834
C           1.28503443820806    8.13678200864464   -2.22958309021283
C           2.19531650227219    7.61699077126179   -3.16619890177325
C           1.57032693947478    7.26986714388785   -4.41005148729619
C           2.37836344459822    6.82255830397318   -5.48309259941264
C           1.90542869472323    6.62798031914224   -6.88381481282810
O           2.16155630290536    5.67027669887171   -7.55207997633631
O           1.22454375690872    7.67496478527672   -7.40674696598581
C           3.72227582907219    6.60272831513888   -5.25847169306364
C           4.30662902863585    6.81704716869439   -4.01410964574751
C           3.56861746063416    7.31474158728584   -2.96082458838290
O           4.18107724651837    7.44244861264152   -1.76959888343265
C           1.50083150106385    8.71604239794215   -0.94863990055416
S           0.36789577007404    8.36042378834089    0.31802564518261
C           1.25806055532435    9.25219494727395    1.49251822663506
C           2.41861388258725    9.79298506815135    0.92670392109498
C           2.51422450793516    9.56807965014716   -0.48432233077700
C           3.55399612238479   10.20927145928746   -1.21499643712375
C           3.59874945026764   10.35955310846750   -2.68380976239997
O           4.60866723349461   10.48767252872365   -3.32722197612970
O           2.38319121929091   10.45444635786693   -3.25384919267289
C           4.54929805951633   10.85464544826653   -0.51526250248315
C           4.54250686778417   10.93099962701393    0.87884908352144
C           3.48675815505113   10.43551904073781    1.60877279194288
O           3.44325498898222   10.51190160884107    2.95506177246920
C           0.77116118707206    9.33672860041514    2.82780257486908
S           0.12105521338734    7.91716290958890    3.56495784213439
C          -0.19531762921832    8.72385929112825    5.06330317680969
C           0.26216021356159   10.04878040221891    5.00517129632875
C           0.72864971329275   10.42647197786114    3.71006985127740
C           1.05103977905186   11.78685959203159    3.45474913548019
C           1.22103468771569   12.32202095522478    2.09206670167821
O           0.66402712838112   11.91689491815680    1.10168614754010
O           2.04511493294715   13.38491612161277    2.04928866329017
C           1.07086290505326   12.66500983508634    4.51596299643960
C           0.79278907349761   12.24876864992986    5.81880859228715
C           0.38828050836132   10.96026616170178    6.08747335255847
O           0.16978251916375   10.52852239016439    7.34519654338262
C          -0.85692732114869    8.01680987457355    6.08956772125404
C          -1.72565626465217    8.55606799561858    6.99721850792809
C          -2.27927924177445    7.87971275147670    8.15042430135734
C          -1.79988886962137    6.72589308739359    8.71610457326523
C          -2.34717642652666    6.12811050393001    9.86939641337717
N          -2.74741120058812    5.59912440333147   10.80674278839928
C          -0.67427943186362    6.01398978580757    8.25252547378296
N           0.24297713834011    5.39461233003907    7.94601388610939
C          -3.36167568692180    8.70248299398378    8.67689826621877
C          -3.43790932622093    9.89445457704813    7.90178890682647
C          -2.42069226155338    9.85863019490504    6.83547329593810
O          -2.26689566360894   10.68926620298840    5.96274158410163
C          -4.35709816669415   10.86817731987147    8.16522168992716
C          -5.25662936661659   10.69434098610849    9.24126465794985
C          -5.19106570059922    9.50166978049354   10.01753650643217
C          -4.23077364366985    8.50761274298329    9.71684826039122
C          -6.09730383882195    9.33595109011055   11.08427264495300
C          -7.02295516556092   10.30154045346559   11.37357903270546
C          -7.08589918204088   11.47587399205887   10.60912514285069
C          -6.22103395014680   11.66821534969905    9.56595156922868
H          -5.82433992981444    6.66874492403128   -6.93519972954250
H          -5.10898339391485    5.84712796042335   -2.06770171049256
H          -7.50924050411518    5.78908970575323   -1.72917919800342
H          -9.80152055313737    5.93125569054926   -2.61832100629930
H         -10.18000963520376    6.32622792478457   -5.02006113781677
H          -8.26781252030331    6.58373952049428   -6.55150788704694
H          -0.58791185477092    6.91868618591107   -6.30531652163781
H           1.11569096041931    8.39954452205856   -6.77735853872174
H           4.32587546543772    6.24037572212759   -6.07606909768686
H           5.34578534532782    6.58975708078219   -3.84572210855673
H           3.54831358427429    7.64657512157706   -1.06890037280197
H           2.48994679698519   10.65326332877386   -4.19721371302499
H           5.34639809790579   11.32149383809984   -1.07253925816515
H           5.36192921374858   11.41652087748585    1.38937236619923
H           4.23577259263637   10.95468166717331    3.28698267652258
H           2.06474880427732   13.74403140313658    1.14816051417917
H           1.30933559028728   13.70145455666913    4.33604612632641
H           0.87406469229282   12.95997161871234    6.62942219531040
H           0.28924900282768   11.25852676716838    7.96740759287200
H          -0.70616892457206    6.94384793854725    6.09025816117754
H          -4.39721706004484   11.76232374998408    7.56055159644599
H          -4.21278606691239    7.61114438610010   10.31616011299471
H          -6.04442852045767    8.43038975999291   11.67061691150421
H          -7.71221551654023   10.16537149146928   12.19338112103802
H          -7.82327126634490   12.22699452297490   10.85006952557428
H          -6.26562688480320   12.57010936109574    8.97282381967597
