132
 SCF done       -241.798006030468          0.000723638082
C          -0.43095160132495    8.99873071504832   -7.73078298708439
C          -0.12241801315488    8.43975850437737   -8.94549393830375
C          -0.65939442809903    8.88243264393141  -10.17055711493168
N          -1.06423892006735    9.19706519180749  -11.19821989233073
C           0.80195408152899    7.39253073263827   -9.12745171908252
N           1.55060712328155    6.54511164817247   -9.33078723045373
C          -1.35676389285228   10.10583645776464   -7.51247538939581
C          -1.23153458693061   10.54400203106404   -6.16313325457202
C          -2.00415900344916   11.54924990386647   -5.65926788294498
C          -2.99775450262972   12.13047684419387   -6.47851493085634
C          -3.14745664208932   11.67629506053496   -7.82029404769287
C          -2.29765752015637   10.66807085962545   -8.33129293886335
C          -4.16899127254030   12.23395757734593   -8.61490254442877
C          -5.00796553848846   13.18880039927540   -8.10771530885743
C          -4.85887563758238   13.63544442939566   -6.78682071457290
C          -3.87246404137374   13.12009863497745   -5.99114969950185
C          -0.26925807934745    9.67622503879188   -5.46334007883698
O           0.21961437958278    9.84740789564207   -4.36576771014833
C           0.04249055466741    8.58943708355343   -6.42791092732172
C           0.56773625750375    7.36674858504880   -6.10134669499447
C           0.56726447618312    6.80585441966450   -4.79672875682869
C           1.54985034769410    5.75184308392541   -4.54628178498228
C           1.22295070412872    4.61758452978279   -3.79591845618088
C           2.11998883003367    3.58333045959106   -3.65075857318709
C           3.37127255405157    3.65223335656422   -4.26479023962473
C           3.70952151126575    4.78209557324042   -5.00992992179008
C           2.81249608659043    5.81729759639221   -5.14709035761048
C           4.34369751872232    2.54790276567083   -4.18441929196124
O           5.39009688657765    2.49615660583041   -4.77653476891187
O           3.95368325997351    1.55130098114516   -3.35275687088604
C          -0.45931446291056    7.08547257107859   -3.87997347298959
C          -1.75511820679801    7.58304605099396   -4.37852900862900
C          -2.41944480592613    8.60558245921744   -3.69865230417311
C          -3.55015570948025    9.18320255284705   -4.23726964088084
C          -4.04741985514096    8.74612181722799   -5.46289676029122
C          -3.44545722750579    7.66051896122763   -6.09896343064176
C          -2.32121731040434    7.08037132900194   -5.55344579745380
C          -5.16974002097261    9.48541591639045   -6.07438963996034
O          -5.74714497642838   10.40913585012597   -5.55515554734675
O          -5.48457547638590    9.05210269769436   -7.30494566665462
C          -0.35162366336660    6.91336353518115   -2.49108481123225
C           0.78222799362679    7.01736084479631   -1.70798311241476
C           0.78955909837831    6.92097349057004   -0.29623284759762
C           1.99115667473395    7.21043153595291    0.27557065002681
C           2.99087579141923    7.54760068579730   -0.65935100558879
S           2.36731494598151    7.46163183292907   -2.28704010960778
C           4.30627260807722    7.87596023234355   -0.38022414019770
C           5.35429235680647    8.14960653143055   -1.28210773042039
C           6.56113172347677    8.33888153464584   -0.67602985757938
C           6.53634489766566    8.17300922398407    0.73114837575058
S           4.88858773738229    7.93037551593285    1.26373275611165
C           7.63550341566205    8.21278676961347    1.56250606645040
C           7.76489648648956    7.78830950973719    2.90708919827687
C           8.78673691646469    8.49292262009018    3.69819525760230
C           8.85783937839402    9.88657287366200    3.64663770107239
C           9.77285232910699   10.56767431642552    4.41952606956381
C          10.64499531494966    9.86875120661370    5.25210853749784
C          10.59991861129966    8.47802263064930    5.28915507566849
C           9.68065614020280    7.79921330581265    4.51630319505408
C          11.60276995443948   10.63961016856028    6.07664254265383
O          11.73413569004487   11.83707489062298    6.03110256291306
O          12.33854237908272    9.87246364379628    6.89470382815823
C           7.08407681103808    6.71800656439614    3.49609266001290
C           6.31313000589060    5.78473371674941    2.66582629226450
C           6.85073725775240    5.27564887079785    1.48336542204338
C           6.07144227172949    4.53982926235626    0.61895626468061
C           4.72757232844307    4.31273200453667    0.91151966395107
C           4.20304257570146    4.75658428335693    2.12243173010045
C           4.99290008188230    5.47213794225214    2.99737621967841
C           3.84435959317298    3.64403724297466   -0.06785691449563
O           2.64558397797103    3.79076852210468   -0.12279579857315
O           4.51559753150681    2.86529404486065   -0.91919357648089
C           7.12080967376083    6.57647186023737    4.90566489905299
C           6.90292120122725    5.45260678833762    5.66006295491641
C           6.80084218818161    5.42726808556156    7.10465417524779
C           7.00843667478430    6.47382318633138    7.97106408123296
C           6.89529988806634    6.36826868238304    9.37257674796949
N           6.81721090030077    6.35384827357200   10.51837625821169
C           7.40384625739132    7.78011792450953    7.61815775983949
N           7.74554669892713    8.86108558262742    7.42624143116660
C           6.47923441327831    4.05969857426270    7.50310429786894
C           6.49687915620299    3.23509114145591    6.34250823510911
C           6.82472767435028    4.05707576676224    5.16400719378715
O           7.06449081813842    3.65301924576259    4.04470228950554
C           6.25397368729505    1.89411555050493    6.40437850788457
C           5.96558808373329    1.30331756512422    7.65541375226194
C           5.93888262605889    2.12161055147758    8.82096816344780
C           6.20049695185863    3.50830379296699    8.72525991401424
C           5.65451216978205    1.52209991008089   10.06453370721560
C           5.40971940613534    0.17874337008305   10.15487743274375
C           5.43598396647958   -0.62597376185621    9.00632919442201
C           5.70706115011788   -0.07524989488494    7.78302883606455
H          -1.88535547053163   11.87351374059318   -4.63630811232978
H          -2.43248919270417   10.34634895427127   -9.35203264024752
H          -4.27924214969825   11.88564326987512   -9.63187889484422
H          -5.79332137506214   13.60359632161308   -8.72228395277226
H          -5.53247456605771   14.38576357184409   -6.40163882438778
H          -3.75675357642034   13.45586888667205   -4.97147251487718
H           0.97668489652499    6.74929122851532   -6.89153875938545
H           0.24536650094475    4.54079704164717   -3.34384435503552
H           1.84284927745404    2.70874570285778   -3.08313697758620
H           4.68083285970664    4.82004719380198   -5.47890133482629
H           3.08407493354066    6.69504909829023   -5.71375926559327
H           4.62326693609368    0.84925250697893   -3.35881516223845
H          -1.99915835413827    8.99120444792140   -2.78228117768387
H          -4.04926417200483   10.00153417619247   -3.74115930477607
H          -3.85693786513300    7.29183061426357   -7.02534060617710
H          -1.85242635997674    6.24374070647681   -6.05190657088783
H          -6.21380840584741    9.58233445975716   -7.66214754580687
H          -1.28082125519767    6.81634539501458   -1.94129884747151
H          -0.09299396465264    6.64135585295435    0.25069099904604
H           2.19516322401547    7.19366242523951    1.33146764321790
H           5.18331656296225    8.17839535432794   -2.34379876315447
H           7.48022038947631    8.53470683909404   -1.19925125501701
H           8.52448775501584    8.65683709507216    1.12699112709795
H           8.16421753460272   10.42849462144756    3.02030917870883
H           9.82475717753825   11.64554590067243    4.40460945388887
H          11.28425964624030    7.93955296661616    5.92536523751693
H           9.66002652808493    6.71892793139461    4.52744180195492
H          12.93234348929428   10.43143993405394    7.41964828806439
H           7.88761486493352    5.46476700227081    1.24884232599990
H           6.48530341879054    4.15844615926950   -0.30149330400439
H           3.16982170586910    4.54432456028188    2.35285185764882
H           4.57795604493736    5.83968907576539    3.92499181510953
H           3.91906143276879    2.44322830204974   -1.56584189436503
H           7.33273899845909    7.48880414826472    5.44791248838773
H           6.28003499389528    1.29150296487623    5.50853826357478
H           6.17281694223228    4.09851283438053    9.62721632078089
H           5.63662953070702    2.14570108110919   10.94637422689005
H           5.19499229037525   -0.27131630085512   11.11256197456394
H           5.24101554447114   -1.68429332196315    9.09555785019891
H           5.72930758939259   -0.68976410621365    6.89478450909071
