104
 SCF done       -205.802167594509          0.000279824699
C           1.10083633625899    2.89014546442768   -2.89862811861177
C           2.22243907067127    3.35843909057020   -2.26071233144644
C           3.28139406020622    2.53762299194145   -1.82885170376979
N           4.16133044848456    1.91481529816375   -1.43229702533855
C           2.48020663619022    4.72501091533280   -2.03395973686997
N           2.75172670033251    5.82808362126718   -1.86387194216263
C           0.93538078087144    1.53186710387608   -3.40724474446484
C          -0.06356157070678    1.54893868434273   -4.42410335525093
C          -0.39958256157203    0.42279278879265   -5.11728318599336
C           0.25104250308155   -0.79471437467981   -4.81237355201722
C           1.23679833856357   -0.82171016668185   -3.78440445773019
C           1.56992078096360    0.36278081165878   -3.08723580356839
C           1.87363014773328   -2.04327762882832   -3.48635124968419
C           1.55734728919342   -3.18402494388796   -4.17257271125338
C           0.58801704818248   -3.15623961854268   -5.18599115037247
C          -0.05104896376941   -1.98715458263349   -5.49872870865260
C          -0.61070816218179    2.91390172528863   -4.54249754630881
O          -1.43383313948475    3.32229887033531   -5.33216252791930
C           0.02479751276869    3.68680466182433   -3.44337487560012
C          -0.49241893368010    4.90231579639442   -3.10208358539135
C          -0.33634176167607    5.61556035123940   -1.89579846621179
S          -0.03843643738227    4.72684937123317   -0.42589730583359
C           0.05782027910931    6.14594705443628    0.51866062708392
C          -0.08061352188544    7.28316176837841   -0.26603045862170
C          -0.38996487326288    6.99616769421305   -1.63809602609421
C          -0.58679933332024    8.08914347274443   -2.52225033947833
C          -1.05806272046699    8.03051536533725   -3.92582936876791
O          -0.66621849011571    8.76200623113494   -4.79905741108288
O          -2.05135590581930    7.15194464053048   -4.13210512752411
C          -0.37695058821768    9.36831269702977   -2.04851990762754
C          -0.01122029525693    9.63813108653095   -0.72950348031633
C           0.13505644656260    8.61738543022224    0.17744762710105
O           0.53502144263283    8.81993342579908    1.44634495345892
C           0.24769577389730    6.06281260913945    1.94668466262420
C           1.25605871798244    5.42359075076226    2.61157034237159
O           1.11720536919284    5.56521391394219    3.93757441255586
C           0.00396941439716    6.26543761511126    4.15454814402483
C          -0.60292572031948    6.60616165077380    2.97227431667018
C          -1.84851985302037    7.35694063000580    2.76851317211408
O          -2.12498480154854    7.92649755625797    1.72886771891998
C          -2.77344351573133    7.38887072899299    3.90214543123530
C          -3.01216510715768    6.47375511522480    4.90272461658616
C          -4.06759488551345    6.84193847371181    5.73542656251688
C          -4.66425130453691    8.03430683058376    5.36906747135092
S          -3.88813727207671    8.71210747533330    3.97271962810794
C          -5.68348350589276    8.71879931181059    6.09191549640782
S          -5.77111418070817    8.45081130647980    7.79496916603538
C          -6.97931210058845    9.67059246160130    8.02566746829625
C          -7.23513157807624   10.32829714968001    6.81274989178574
C          -6.58205426517086    9.72214984228855    5.69448111276911
C          -6.90612647888880   10.16947460058011    4.38543807637129
C          -6.64660854025073    9.42214536148736    3.13534099075746
O          -6.51820844837090    9.93185125141736    2.05269388615245
O          -6.68000564633871    8.08890487182395    3.30140307746619
C          -7.66454688098596   11.31109564663304    4.25115074954820
C          -8.13164368919620   12.02151619963066    5.35799371036420
C          -7.94550867763656   11.54612655534498    6.63611352217528
O          -8.35569004660655   12.23640426498804    7.72066459118229
C          -7.53805149150849    9.82799238958358    9.31012521368114
C          -8.80854637571020   10.25464925835166    9.58378709685552
C          -9.33223832474676   10.60674401856119   10.88599601545316
C          -8.61412773252818   10.74207671754476   12.04755715456857
C          -9.17575214476308   11.12173813072384   13.28381393624992
N          -9.57045800266242   11.42088646021950   14.31993755546128
C          -7.22484302128245   10.53956823835383   12.17517885675463
N          -6.09881640695934   10.40569035004668   12.35916988213268
C         -10.75785733597888   10.87955720015591   10.73611648533611
C         -11.11239756042999   10.69535348007843    9.36978050991189
C          -9.92463472822343   10.27724209194683    8.60414631368065
O          -9.90761099943563    9.92680011373685    7.44112377707069
C         -12.38678500251713   10.88768793379519    8.92166563384407
C         -13.38499439370092   11.29424235349135    9.83566220278133
C         -13.03986125954276   11.47824365679801   11.20533056677410
C         -11.71211969526792   11.26060785767702   11.64154039664021
C         -14.04347310147399   11.88099887799128   12.10945590367888
C         -15.32600055131354   12.09479328660171   11.68264275689413
C         -15.66433208801605   11.91397510028957   10.33344601117425
C         -14.71419927459415   11.52234912303392    9.42953325978967
H          -1.15170140564194    0.45823894629672   -5.89141477916573
H           2.31498305634613    0.31403606625596   -2.30839889356501
H           2.62216839901901   -2.05842591705045   -2.70766681137576
H           2.05345035574400   -4.11421666393816   -3.93885315846344
H           0.35033061226279   -4.06549866026275   -5.71778782915758
H          -0.79827989666627   -1.95986793427809   -6.27844864506562
H          -1.17472861954414    5.32125148566979   -3.83131101953906
H          -2.35010219965817    7.19664153097989   -5.05542706838035
H          -0.50505043095593   10.19046514164204   -2.73642443764117
H           0.15595045300297   10.66085482009622   -0.42260305941630
H           0.62740987764928    9.76804408677460    1.60911948892138
H           2.10924000127200    4.88643293777043    2.24758811881753
H          -0.24093497864027    6.49954344434989    5.17186145435454
H          -2.46654849342374    5.55352406164413    5.00389328775809
H          -4.40943072583337    6.25605416182909    6.57007664286703
H          -6.56598520745196    7.65388252981847    2.44124197606760
H          -7.90103900307317   11.65442000912629    3.25577065468153
H          -8.67552755051735   12.94354133194450    5.20599528896015
H          -8.81809524869466   13.03757067335439    7.43999636286710
H          -6.90507518800714    9.51835534643251   10.13249066135674
H         -12.63029130758876   10.73590195470509    7.88031810098750
H         -11.48611528537129   11.40005217602728   12.68666638167296
H         -13.77807144111322   12.01944944753129   13.14728597443230
H         -16.08722984970543   12.40454134044894   12.38285782428925
H         -16.68126843893110   12.08592996744474   10.01376177753382
H         -14.96892933356940   11.38037380507190    8.38928695542669
