153
 SCF done       -233.384691322547          0.000463037081
C          -0.93858407338424    0.33741951620482    1.18192512211143
C          -0.11630581276147    1.30416500403713    0.66702678101972
C           0.88160641802434    1.05107593013500   -0.29542186755652
N           1.69160172480079    0.89604608838828   -1.09423137616335
C          -0.11068274346874    2.64464697885415    1.10396657403308
N          -0.01109591248076    3.72957666756372    1.46547870936756
C          -0.79922744471604   -1.09779414550814    0.96354371424237
C          -1.48704564909366   -1.78409237007682    2.00714829053748
C          -1.49747075451665   -3.14687741094435    2.08327756075173
C          -0.81652555518163   -3.89794827067469    1.09876232164046
C          -0.13913269926350   -3.21817294576543    0.04550698627266
C          -0.14096045139641   -1.80546039224815   -0.00609506618077
C           0.53302070100872   -3.97956796409745   -0.93220025241222
C           0.53983823558339   -5.34639594723559   -0.87274650383752
C          -0.12733339847566   -6.01493154278734    0.16461881360370
C          -0.79066347160079   -5.30624671809352    1.12911665104199
C          -2.13715295361088   -0.80003877246016    2.89260325532585
O          -2.75842144120551   -1.00718620791830    3.90992089153982
C          -1.92181704122643    0.51968433711345    2.23361546079638
C          -2.67180453698254    1.58743669844152    2.59599330135428
C          -2.89287240172530    2.81116829346612    1.87101575952137
C          -3.12529119984855    3.99827561557380    2.58178761692964
C          -3.33009572033881    5.16578116383691    1.89118210932791
C          -3.36194232724101    5.16942948491080    0.48543128904268
C          -3.17825332940093    3.99185210445802   -0.22582366516855
C          -2.93301905200944    2.82709570062878    0.46974651879756
C          -3.62661634335268    6.51889381830190    0.03475211403270
C          -3.75348668995383    7.34846151833538    1.16095277668991
C          -3.55182566378675    6.55794945332521    2.43178715114026
C          -4.78867524547579    6.62437207866799    3.34552598632391
C          -6.06089244989012    6.15173011847059    2.65215618775138
C          -2.31109657011406    7.05251494632757    3.20132724100451
C          -1.03707198840427    7.01203762382670    2.36608355847305
C          -4.02932496102800    8.68784350924888    1.01521336260522
C          -4.18847001446989    9.22184684351468   -0.26688242901135
C          -4.04936670146555    8.38867311457514   -1.37912604864352
C          -3.76747552106201    7.04302923085413   -1.24112907247505
C          -4.51259401163681   10.64337237838072   -0.44135524197052
C          -5.44825168871191   11.02994304901436   -1.40547254700420
C          -5.77205325525492   12.35973317637144   -1.54969729828561
C          -5.12241971422426   13.32810341046965   -0.76813156542509
C          -4.18530947569313   12.95646447251048    0.18271125271365
C          -3.89751851071787   11.61479666048939    0.34823999685839
C          -5.60379234055324   14.63757069139042   -1.16037482761606
C          -6.55039115208042   14.47834870077858   -2.18466857170134
C          -6.73276120468629   13.01180111473938   -2.52547826612766
C          -6.25357738195649   12.66821446340430   -3.95142132248892
C          -7.04564068220274   13.28719095164834   -5.09581498530629
C          -8.20663120903002   12.64592923428611   -2.25373358367192
C          -8.59492017561404   11.19025079878748   -2.47892420958319
C          -7.21178984896128   15.57612134173094   -2.68642096774447
C          -6.89906354483273   16.85263133031349   -2.21016516292415
C          -5.92888939040119   16.99806104098245   -1.21851572495183
C          -5.28781794478831   15.89842665716295   -0.68004156078309
C          -7.60089569762432   18.02746118315436   -2.74234809317241
C          -6.90265005335999   19.20994558791939   -3.00387830313055
C          -7.57936012724088   20.30075859234951   -3.49735750555260
C          -8.96227278174493   20.23427334928205   -3.73680888945467
C          -9.66319815879482   19.06579208514443   -3.47878383909639
C          -8.97528484547717   17.97366846815490   -2.98597604365260
C          -9.40189230538362   21.51363058550979   -4.24967005770398
C          -8.28923780214542   22.37004125696917   -4.32831654849317
C          -7.04195079613650   21.66792554133544   -3.84762611478622
C          -6.44544875584583   22.36738418960865   -2.61172833814419
C          -7.43353132457739   22.47432454398677   -1.45620140921180
C          -5.97993842815120   21.59239090776497   -4.96047736703132
C          -6.50968034265948   20.96203327556846   -6.24236897061806
C          -8.41885185997531   23.65181438893998   -4.79953612277653
C          -9.68280787897528   24.10542704911978   -5.21001659566716
C         -10.79589220491068   23.25762715226302   -5.07429201354647
C         -10.66387151663555   21.96507871568548   -4.61628718700820
C          -9.89915849888527   25.42796922587346   -5.72439908296970
C          -9.05295837649429   26.19593710279784   -6.46346263241730
C          -9.32761343472630   27.56280990593809   -6.87988315872769
C         -10.24962060648776   28.40959590205416   -6.32279191056119
C         -10.46078362048836   29.73697518040984   -6.75003294259202
N         -10.68360574288206   30.82146220844564   -7.05422114283236
C         -11.08696177393258   28.09703954385990   -5.23103226989780
N         -11.78713290120662   27.93143506406112   -4.33567939880946
C          -8.38683532990945   27.90992418747488   -7.93603040026958
C          -7.49547659827934   26.81636274266904   -8.12154178437132
C          -7.84463493173962   25.72381139139125   -7.19405530266566
O          -7.28345938797930   24.65234313405733   -7.11513238577167
C          -6.49286846993907   26.85130360168174   -9.04704944650737
C          -6.33247032790965   28.00588544239367   -9.84523786758831
C          -7.22491612056564   29.10261916782660   -9.67068644558818
C          -8.25467189487065   29.03642594046279   -8.70459214586012
C          -7.05880477109198   30.24766745377406  -10.47630053644972
C          -6.05905446461651   30.30913735346129  -11.40826305855353
C          -5.18020910536844   29.22897397711060  -11.57852686124714
C          -5.31373190638249   28.10234049100240  -10.81339764587870
H          -2.01867445614920   -3.64758651218208    2.88571560212451
H           0.37152860425368   -1.31539288209582   -0.81936723045261
H           1.04756532658045   -3.45994654371744   -1.72722179033325
H           1.05988158550877   -5.92051321363295   -1.62495568796718
H          -0.11272171178532   -7.09417385103910    0.19568729069724
H          -1.30568442171857   -5.81565271373203    1.93051953878217
H          -3.22134968806401    1.47219168412876    3.52564165595162
H          -3.09931235732484    3.98183717033166    3.66143294483137
H          -3.22351582411070    3.98475295678450   -1.30449387169636
H          -2.80954602547198    1.89808472500548   -0.06916540638480
H          -4.92099238940362    7.65528282918083    3.68044885893577
H          -4.60576857393023    6.00846868698339    4.22845953361360
H          -6.27424681997237    6.76747527189612    1.78110769917209
H          -6.90550699769373    6.21580436111013    3.33439541334398
H          -5.95980007632845    5.11907900387422    2.32516074907245
H          -2.18117287346186    6.43043249683685    4.08931917631223
H          -2.49792008294392    8.07621954973693    3.53463454047145
H          -0.80714645321861    5.99599322928253    2.05642785328816
H          -0.20023351500378    7.38931271236184    2.94935853804863
H          -1.14082654863794    7.62918029916427    1.47600792541912
H          -4.14922723361506    9.32574433953842    1.87870245054368
H          -4.14423245483960    8.81339730288826   -2.36784131766296
H          -3.65855528914781    6.41432526249684   -2.11231767953490
H          -5.91492250362972   10.27148885955991   -2.01496991596386
H          -3.68237567378244   13.70165570986311    0.78106083461448
H          -3.15796993764717   11.31296423043162    1.07553945639026
H          -6.26528401762357   11.58198224864110   -4.05803984664751
H          -5.21120088046283   12.98934999957947   -4.03149451375329
H          -8.09862234892013   13.02397156547466   -5.03900025738664
H          -6.65699374789317   12.91733190247459   -6.04280972634152
H          -6.95041524401989   14.36921391877049   -5.09597510476631
H          -8.83201685067185   13.28022665197033   -2.88455040136665
H          -8.42239851538158   12.91052690313801   -1.21471213109759
H          -8.35977506744011   10.86755479856304   -3.48974257221828
H          -9.66738332104683   11.07787676157995   -2.33094109406212
H          -8.09092777967301   10.53733024051749   -1.77225753940168
H          -7.96433483201279   15.47366704062837   -3.45319647311675
H          -5.70537965787451   17.98487817852187   -0.83981995800328
H          -4.56043618257174   16.02118281307924    0.10868465174058
H          -5.83649818106245   19.24977495821657   -2.83463587906084
H         -10.72711659996187   19.00888237224081   -3.65495793411539
H          -9.51278240416564   17.06441842705235   -2.75951245086842
H          -6.11721256042893   23.36739213938945   -2.90226493303711
H          -5.56530573974969   21.80871858961187   -2.28603144418129
H          -8.31143484225496   23.04461844929568   -1.75200689606366
H          -6.96779078330391   22.97516399945534   -0.61048496954722
H          -7.75905510680041   21.48713495966147   -1.13514889372377
H          -5.13011583453156   21.01389259281368   -4.59102058108623
H          -5.63224210326405   22.60292584556983   -5.18126949028852
H          -6.91519278402226   19.97076439212859   -6.04896655325356
H          -5.70685140084959   20.87076095230084   -6.97012483777555
H          -7.29102893399922   21.58242593780600   -6.67408698817704
H          -7.57191643197403   24.31646218853760   -4.83022628897820
H         -11.76853050776723   23.62671597324797   -5.36713852869395
H         -11.52576905502079   21.31943872665753   -4.53875781998076
H         -10.88811368297037   25.82867013426658   -5.53009755869006
H          -5.82952168650802   26.00762406466699   -9.16816176965465
H          -8.91895150224589   29.87969012268072   -8.60126924410564
H          -7.73747520271647   31.07699803488015  -10.34065046974105
H          -5.93982998534984   31.19077198963427  -12.02010994049015
H          -4.39691819648831   29.29432333558878  -12.31892931332644
H          -4.63989392305076   27.26744531185748  -10.93979483000452
