122
 SCF done       -217.405669588996          0.000979444161
C           1.29068458878968    2.31164304267792    2.66518118763139
C          -0.06912267595090    2.40659973265501    2.84017308376936
C          -0.76494912416019    1.83319983087105    3.92173674376835
N          -1.38127309098655    1.42025124766813    4.79878610483748
C          -0.93997581091564    3.02512281480710    1.92368285847079
N          -1.69894067952795    3.49275105867986    1.19946737256620
C           2.17134602608851    1.44419899785553    3.44441642783764
C           3.37054392536560    1.23657846305281    2.70302982274837
C           4.37003713715120    0.43151595219274    3.16556017949660
C           4.21890974355663   -0.20386899827815    4.41953459461657
C           3.03065037564849    0.01433039058765    5.17396741125069
C           2.00713890628537    0.84734777246427    4.66446606487876
C           2.89571149450011   -0.61794613737227    6.42627772549194
C           3.88415273914650   -1.43099021374842    6.91058555127102
C           5.05300160514995   -1.64706683229224    6.16613336377469
C           5.21657158872650   -1.04660392064028    4.94711405613308
C           3.31036493920637    2.02258565891115    1.45645578111327
O           4.12293410803969    2.06055922384076    0.55928807998770
C           2.05663597895549    2.81758447333106    1.55323901971327
C           1.88440683096390    3.87062481559446    0.69699253996763
C           1.04367985667661    4.99010306105327    0.81039981674103
S           0.79507471639591    6.00476835212120   -0.60547474662632
C          -0.21414732236997    7.04330906643900    0.29937819269484
C          -0.32749067936627    6.65025723979641    1.64104384296237
C           0.37808414123538    5.50044322181452    1.92523417178412
C          -1.24537565814008    7.57975031921880    2.39747612304360
C          -2.47111992390823    6.82199713055073    2.91656904194512
C          -0.51751247904586    8.29101543806915    3.54144748952955
C          -1.61864918227102    8.54713968141803    1.29947031711342
C          -0.99411211451863    8.20020423409008    0.09658405914624
S          -1.37628101107036    9.28527655134744   -1.17427736999263
C          -2.38752612194322   10.22142147278457   -0.08935170084717
C          -2.40486509659258    9.68127440611843    1.19218857127006
C          -3.02824161940628   11.38338586537255   -0.58478459361301
C          -3.86446068244147   12.16840484516188    0.14147063879799
C          -4.46959929122646   13.36199879172242   -0.32262585157390
C          -4.32978269017089   14.01906454289066   -1.53530773839788
C          -5.06863960505707   15.19910499829901   -1.58357385114457
C          -5.78843034736018   15.44811373600140   -0.40080423984008
S          -5.55002843204359   14.22721246170345    0.76677632584209
C          -6.48124639590416   16.67366979420294   -0.54239235410219
C          -6.19899166197867   17.20839178131992   -1.81104237637136
C          -5.30782138887553   16.29603365401177   -2.51041332836236
C          -4.79805680403033   16.44065572916163   -3.76718701520249
C          -5.09883294815865   17.55698741362990   -4.57564792131845
N          -5.34394962582333   18.46057231786838   -5.23745686479001
C          -3.93374405457766   15.48418651596228   -4.33985296729333
N          -3.23074179396341   14.70323910995114   -4.79928215253343
C          -6.81999549289758   18.43742356089295   -2.03430848557197
C          -7.57582354850602   18.84270065765783   -0.94943336089069
S          -7.52006864973853   17.67774673627966    0.36976763593884
C          -8.32160219709172   20.03710151476816   -0.80294057347739
S          -8.29336369123459   21.26021402039905   -2.05828053969383
C          -9.32823948074863   22.25380645288142   -1.11405508861168
C          -9.67994014703486   21.66192234433920    0.10082483745306
C          -9.10854718796229   20.41087412833379    0.27615773587770
C         -10.58740957423097   22.56882353607531    0.89739583523947
C         -11.95798984380327   21.92477522492030    1.12433274801659
C          -9.94705966222685   22.96408439190147    2.23097908985596
C         -10.68187517803829   23.75126950980538   -0.03852022072137
C          -9.93211399018445   23.52647606800456   -1.20099590415957
S          -9.98606189346297   24.84310870952947   -2.29314796472964
C         -11.03106646639162   25.72334267706155   -1.18688637988706
C         -11.30207817041320   24.98554200552186   -0.03543612492804
C         -11.49510362590240   27.01974350126533   -1.47477287125772
C         -11.17844299250932   27.74145995709929   -2.58853489947694
C         -11.67619971352461   29.04216773321088   -2.78465272699907
C         -11.38492156860311   29.84931990324869   -3.85340022512784
C         -11.87508570736032   31.19224581596621   -4.07992714587803
C         -12.73433642803561   31.90793570476725   -3.28206617700528
C         -13.17313626487010   33.21731464597512   -3.56546658878552
N         -13.57003081971874   34.28238882413049   -3.73063666463444
C         -13.30707342459917   31.45983865436271   -2.07505840617489
N         -13.81538640926474   31.17573797153106   -1.08394687334795
C         -11.29117314250016   31.67472049835056   -5.32823473342771
C         -10.45956042329918   30.65211746096623   -5.86646083763184
C         -10.48799922378132   29.47816926202501   -4.97444740927643
O          -9.89146858689379   28.43291490948107   -5.13861208713482
C          -9.77378548497681   30.81856013645644   -7.03419323350534
C          -9.88975085675273   32.04106475421250   -7.73369864811994
C         -10.72076725207922   33.06902132419627   -7.20348025242651
C         -11.41911448007158   32.86664940059141   -5.99061296074037
C         -10.83042583845930   34.28473982300907   -7.90855138001292
C         -10.15188773928007   34.47800013593435   -9.08094361907550
C          -9.33305046633675   33.46518966334833   -9.60180384392083
C          -9.20500249126057   32.27266025692751   -8.94253910178814
H           5.26667240987178    0.27985369029150    2.58317602375066
H           1.12067507913897    0.99997121848499    5.26028913743450
H           1.99220067878945   -0.45103303448238    6.99439417415369
H           3.77007376565344   -1.91266701092305    7.87022980900880
H           5.82318093591718   -2.29152189073187    6.56296237465287
H           6.11464444702092   -1.20934794212711    4.36922886379798
H           2.55546195188982    3.86573469127365   -0.15714567297672
H           0.45802610588731    5.05777850950355    2.90165963523432
H          -2.17223767287948    6.10740276126167    3.67930885324347
H          -2.94873350068332    6.27737373245187    2.10580961269366
H          -3.18769757060866    7.51711957241731    3.34684299267108
H          -0.18339661431706    7.56598041703260    4.27930852010386
H          -1.18526580045146    8.99968132429663    4.02478900329380
H           0.34882522310551    8.82953842400969    3.16342734773747
H          -2.96432589328215   10.11387669377057    2.00079759897062
H          -2.81232541896768   11.64156100065462   -1.61169801702885
H          -4.09962467162242   11.89311742883889    1.15990685526740
H          -3.71078253638804   13.65384250293748   -2.33344532528063
H          -6.73620343043720   19.02284513923884   -2.93223835796193
H          -9.24002566383195   19.78006692978449    1.13727105211271
H         -11.85419634607017   21.03123628479281    1.73478525662702
H         -12.40808039699595   21.64803992493076    0.17370098273283
H         -12.61824815913576   22.62279006317530    1.63268227608643
H          -9.81672665427610   22.08531378038626    2.85752501660595
H         -10.58103237114103   23.67647169856028    2.75261072138322
H          -8.97430095878694   23.42059072606849    2.06285842633175
H         -11.92496425166843   25.36649141552473    0.75385596569481
H         -12.14685989246935   27.46255048149561   -0.73013318270195
H         -10.52492460828052   27.31914240257519   -3.33845693947821
H         -12.33603478497207   29.42234031063146   -2.01513096903146
H          -9.14892567534946   30.02656480211247   -7.41986036726731
H         -12.03887738176049   33.66598498588034   -5.61689542557988
H         -11.46217169325310   35.06155043024733   -7.50303268667386
H         -10.24239777244419   35.41297814506697   -9.61353988824925
H          -8.80425435872001   33.63454287194084  -10.52799440363282
H          -8.57586880489870   31.48893651289816   -9.33889331003291
