138
 SCF done       -227.752764590308          0.000560627876
C          -2.82679774135182    1.43603983937102    3.53577462017649
C          -3.26125266514160    2.49504724743049    4.28690531836673
C          -4.54218546623498    2.57433101539212    4.86813086754169
N          -5.58536379840603    2.69990893370110    5.33077067095496
C          -2.44554770197019    3.59570636133005    4.61968799670490
N          -1.81119518362768    4.48516449078182    4.97163446318218
C          -3.50425217566472    0.15290518646988    3.40158906101102
C          -2.54678892395113   -0.82264403554875    2.99447442429046
C          -2.88792349878770   -2.13443649079052    2.83243769676217
C          -4.22460812255551   -2.53310658473175    3.06019854373621
C          -5.18949599683157   -1.55851923572895    3.44755893984094
C          -4.80679323090835   -0.20858756918590    3.61814231770389
C          -6.52136444254313   -1.96829279926063    3.66112542684855
C          -6.88429648088489   -3.27813577473745    3.50518638811307
C          -5.93318418904807   -4.23781030608890    3.12755503218546
C          -4.63220390520185   -3.87334340291722    2.91004906316105
C          -1.23966878452795   -0.16990792019799    2.78854694908704
O          -0.18583505105924   -0.68485177964488    2.49437670207395
C          -1.50473578618810    1.28890389032049    2.95322206714832
C          -0.62999897898546    2.20257939562633    2.47105005404752
C          -0.87350346653991    3.59525374756652    2.19145354905631
C          -2.14064031460836    4.03550452476042    1.77642063633978
C          -2.33819324161321    5.36567007247061    1.51140553668451
C          -1.28668514975005    6.28917182919969    1.65696473927722
C          -0.02532100419451    5.86075391190742    2.04544225325131
C           0.17564083089452    4.51746705681723    2.29074982453079
C          -1.78513405588326    7.60410774214288    1.31540096222410
C          -3.13852032159759    7.48933310134993    0.95230624603621
C          -3.60130415849699    6.05615096812805    1.05687557343083
C          -4.08182771978136    5.51584717220719   -0.30285619006316
C          -3.02094804270656    5.62376980083437   -1.39161140423294
C          -4.72448020793221    5.90232654234790    2.10130983966947
C          -4.37295027149608    6.51761619356072    3.45050439040330
C          -3.86202443594661    8.59136795831476    0.57097496885686
C          -3.23793901239734    9.84827072326335    0.54311239113442
C          -1.89220731411974    9.95049457729370    0.91745141584979
C          -1.16236137093301    8.84405054091364    1.30080456793273
C          -3.97652452041441   11.01626917289736    0.12925758039937
C          -5.22299735131321   11.06845098219331   -0.45481921910483
C          -5.62926152210387   12.37797723401057   -0.73056166671291
C          -4.68107165091522   13.33491374130976   -0.34833980555359
S          -3.29329710277988   12.62362542242231    0.34205833369157
C          -5.18559425001171   14.62608805849105   -0.67518284238492
C          -6.44770422405294   14.47381148045194   -1.26263071072983
C          -6.77220365139376   13.05786981423344   -1.31751550852579
C          -7.90805189348119   12.48804348209131   -1.81554264359390
C          -8.95093693915123   13.25820821538721   -2.36980284652536
N          -9.79779828931178   13.88631997183641   -2.82140395270595
C          -8.11001404545266   11.09268107977229   -1.81041134499791
N          -8.27460042985455    9.95754218682479   -1.80317181013823
C          -7.03054163096264   15.69235793699151   -1.62440674470572
C          -6.22974532577244   16.77034634998461   -1.31711718698384
S          -4.72321849652010   16.26364624647580   -0.56189872719812
C          -6.50011072395276   18.16864372557175   -1.54486617718217
C          -7.58253567862099   18.55414943026320   -2.35090636261424
C          -7.83122403978342   19.88856680103480   -2.55172452748915
C          -7.01823428995122   20.87155738816250   -1.95793803391778
C          -5.94067312692630   20.49969381718613   -1.16550895659433
C          -5.69130841253339   19.15703946750372   -0.96904672719696
C          -7.52245959931496   22.17254115436022   -2.33702764839858
C          -8.63904018573053   21.99129265946833   -3.17260655260275
C          -8.92478606156874   20.52357016450351   -3.37485692877922
C          -8.81780780212057   20.12809816281721   -4.85936465731102
C          -7.46223073613454   20.46826685984236   -5.46716213091369
C         -10.32389387187492   20.15607874953550   -2.84411650198488
C         -10.50311544074102   20.48730596719640   -1.36753743443259
C          -9.32483050821485   23.06187325420080   -3.68629502975793
C          -8.91366390940398   24.36504772524210   -3.35932161132942
C          -7.77904768357886   24.53117456338664   -2.53808177473367
C          -7.08966385023638   23.45622145914675   -2.02265446951107
C          -9.53842361566673   25.55761048221606   -3.85025024700359
C         -10.73883067392585   25.80082641517110   -4.45129124783874
C         -11.11583321771331   27.12295559253290   -4.94500120881483
C         -10.28646161560153   28.19663374035655   -5.13940836872778
C         -10.71671754984745   29.44388135986350   -5.64083815297584
N         -10.99540873481269   30.48507198528199   -6.03658481972305
C          -8.89390752898477   28.23553668508639   -4.91249665038612
N          -7.75996955449081   28.36697754858181   -4.78057055745471
C         -12.53203250882855   27.09528715150766   -5.28590182080812
C         -13.01426733766302   25.77344577263443   -5.08353996620958
C         -11.92512306337992   24.91364639778875   -4.59012921594914
O         -12.03428076839063   23.73324358630593   -4.33003351770195
C         -14.31053655276853   25.42713517993312   -5.33492102514947
C         -15.20468277603170   26.41072872260108   -5.81171956466141
C         -14.73354438163625   27.74078918915854   -6.00902182841286
C         -13.38538034855823   28.06805385286524   -5.73767902065547
C         -15.63497752930626   28.71613088840327   -6.48255396521451
C         -16.93722922421896   28.39419365312458   -6.75170720645530
C         -17.39928323483701   27.08361895895070   -6.55840136154597
C         -16.55150020670233   26.11312064413276   -6.09810545450755
H          -2.14722568615110   -2.86118049167686    2.53346255031334
H          -5.55651896365537    0.51197504793083    3.90677658595763
H          -7.24889916164530   -1.22604695488400    3.95526767798558
H          -7.90659618911159   -3.58240982135775    3.67275863917337
H          -6.23674701683182   -5.26723578125905    3.00949276783610
H          -3.89593599152893   -4.60811981544896    2.61875965828208
H           0.35009505798398    1.81777876142882    2.20693757445733
H          -2.93739055261183    3.31886969148794    1.63506819663825
H           0.78786847125722    6.56264804938815    2.14997468861288
H           1.14817473801003    4.16595007249338    2.60191987894633
H          -4.96943125053401    6.07432345588088   -0.60646165463140
H          -4.37275770519147    4.47029118433084   -0.18065584134144
H          -2.72992020501010    6.66099465315878   -1.54255176197082
H          -3.40883779016342    5.23542633060296   -2.33037902291989
H          -2.13333436346752    5.05441050454546   -1.12400096588675
H          -4.93529669358827    4.83813579585300    2.23079836058519
H          -5.63037243590028    6.37358552769425    1.71416987072016
H          -3.44457525391422    6.10477334918283    3.83855663411952
H          -5.16377323265186    6.31279477913612    4.16839965248899
H          -4.25667280614865    7.59556030297839    3.36361252190482
H          -4.90269543562513    8.49530539996994    0.30499178354118
H          -1.41733442286217   10.92132061306360    0.89698612263775
H          -0.12555397529940    8.94573780126807    1.58277214591128
H          -5.80954994783938   10.19924956965146   -0.68670638593863
H          -8.00085311393196   15.78018788527951   -2.07620736971904
H          -8.20605065977375   17.80775591894296   -2.81669188570066
H          -5.30712857084806   21.24445179095994   -0.70809089861251
H          -4.85790170956721   18.85416673944950   -0.35086525507709
H          -9.60420125093333   20.64531894887394   -5.41197320979295
H          -8.99630274077794   19.05469075675087   -4.94911434348243
H          -7.27079928765430   21.53757880065761   -5.40881119623597
H          -7.43714072348210   20.17196494226884   -6.51319856488232
H          -6.66285172162021   19.94795574772628   -4.94357503631030
H         -10.48856106822483   19.08793942962133   -2.99957209372894
H         -11.06793583196990   20.70206369047050   -3.42636138058336
H          -9.78123549078370   19.94793649944459   -0.75741361156026
H         -11.50301855436892   20.20904361910808   -1.04367785358426
H         -10.37231596690841   21.55326710772854   -1.19525261507206
H         -10.17162252920813   22.90688952736484   -4.33065071299990
H          -7.45005103254645   25.53354507885404   -2.30349911389342
H          -6.22801294342262   23.60982612363508   -1.39051553122447
H          -8.92461235009217   26.43726520573100   -3.68906434562437
H         -14.64753444198979   24.41369541992085   -5.17416493747083
H         -13.06412255422592   29.08548728096461   -5.89264839721786
H         -15.27441383819511   29.72341329680502   -6.63141415305882
H         -17.61918394142049   29.14794503256638   -7.11591633579503
H         -18.43015690119517   26.84719488830201   -6.77607299744891
H         -16.90110291585844   25.10218078712160   -5.94702392087282
