132
 SCF done       -259.401026748449          0.000901353716
C           2.56417924503972    3.25533399313767   -0.13958551824879
C           3.14752001856386    3.91317429019018    0.91323319191001
C           4.52340174135208    4.20786503912029    0.98677320709572
N           5.63152764298560    4.49026604764936    1.09088195191712
C           2.45789288047276    4.31280489313520    2.07575917756930
N           1.94836540751388    4.64314890754375    3.05056993101543
C           3.28399129010535    2.61978378191818   -1.23833613460335
C           2.42491459849967    1.65948832608976   -1.84826385597555
C           2.84260075084001    0.88155650800356   -2.88872215263234
C           4.15736920326695    1.03921763225397   -3.38298488711838
C           5.01484759285454    2.01020782646410   -2.78982263208087
C           4.55743149073442    2.79710105111438   -1.70763203708302
C           6.32040664215249    2.16391032092266   -3.29871252466763
C           6.76132758589023    1.39404817678987   -4.34038422376700
C           5.91703753594892    0.43686535795012   -4.92240513841489
C           4.64306524693816    0.26323299479929   -4.45366139804191
C           1.10429120738293    1.70001687204857   -1.19288916348243
O           0.13894496098389    1.00735507648214   -1.41688753760275
C           1.18224179249573    2.83676408933875   -0.23291516072091
C           0.04374659056051    3.33298119406242    0.32376802865714
C          -0.14405774266089    4.62151114930059    0.88208761270126
S           0.71993373281616    5.95643108376804    0.18685188919964
C          -0.10592958806955    7.12464280652165    1.14739757154400
C          -1.01120897835939    6.49556257872613    2.01959784051102
C          -1.02913316157969    5.07108584727147    1.87432994315100
C          -1.82794986360611    4.30362573297934    2.76030268331065
C          -1.83192665996761    2.80347949570522    2.74836337066062
F          -0.60409220909224    2.26131042228467    2.72166140419034
F          -2.43567646454701    2.28705318199323    3.82916651579106
F          -2.49846306335868    2.29349308521724    1.68977357002810
C          -2.60989693207578    4.94849412821768    3.68567658641543
C          -2.63195520734572    6.34096249858680    3.79588907649720
C          -1.83907130397449    7.12909923615936    2.99199173421699
O          -1.78448988204722    8.47536273774595    3.06636462739800
C          -2.52986691506366    9.14572611439923    4.06013884049851
C           0.15510928430138    8.50547283983016    1.00137237392788
C           1.16302562149990    9.03099676235685    0.26146597375948
C           1.38862347734776   10.42922092709477    0.14455858886703
C           0.57802738128270   11.45764852539255    0.54827599846698
C           1.11413985463896   12.74038068119217    0.31069840955286
C           0.54246763212757   13.99110716339730    0.62981050346063
C          -0.71924475386339   14.11582918868552    1.33041727684197
C          -1.68991047166783   15.06044765219022    1.15242062431933
C          -2.76780678107755   14.92003731578030    2.05302869177937
C          -2.63537854275895   13.88792476772157    2.93589516102204
S          -1.14912498200509   13.05056140642213    2.64469427801849
C          -3.57433027938645   13.45075510555312    4.00036302769234
Cl         -4.12883244352630   15.97282779063073    2.03282544280588
C           1.27459037682065   15.11455954704097    0.26087063062025
C           2.55153698819945   15.04823685733846   -0.35332817086958
C           3.13308476890177   13.79802936818763   -0.65000429082138
C           2.37902730335672   12.67394018989529   -0.32975447917212
S           2.86401524115781   11.02227441622979   -0.58870545900334
C           4.45649706212368   13.66865553015427   -1.22449650493478
C           4.88497453592506   12.75814176894857   -2.14785788844309
C           6.26286693756691   12.87340502418261   -2.43154476301204
C           6.90569777334192   13.85125992681414   -1.72958013040077
S           5.78500555876673   14.66799301185027   -0.69485591828485
C           8.33876251838769   14.23609847410905   -1.76456996980473
Cl          7.05262867538520   11.85440600690508   -3.57234016474192
C           3.08404231048868   16.33476617238541   -0.59956471988912
C           2.27684775074829   17.35405770291976   -0.18039199646647
S           0.79188320239750   16.76597300238122    0.53734037081857
C           2.51920701400159   18.75118384206024   -0.27371698346674
C           1.65182662676279   19.77548016895096    0.05269955220099
C           2.22601086180050   21.02969376451190   -0.15620150864749
C           3.54516540631041   20.95545155479849   -0.63635052751797
S           4.07069254500462   19.34249153647185   -0.84422994618885
C           4.05327290130574   22.26723440582617   -0.80379216403750
C           3.03595715707863   23.17728824621042   -0.42941537172098
C           1.85939816842907   22.42900834996978   -0.01347447896693
C           0.66870287171283   22.92764007500267    0.42560636476538
C          -0.40091535287018   22.08893688272173    0.80461521815284
N          -1.27189107013435   21.41005776325735    1.11277236797591
C           0.42498185452688   24.31310707831881    0.53751658928470
N           0.22177178813358   25.43664650851687    0.63770234764548
C           3.44132582668088   24.49217647918035   -0.55152682520057
C           4.76595997684314   24.60738768152838   -0.99052642912702
S           5.50371970903809   23.02901040464551   -1.26703795025753
C           5.37860493737226   25.85774103012747   -1.16873610114774
C           6.67415281437814   26.17048516615843   -1.48943657922174
C           7.22266818242725   27.50878033225722   -1.61811137000545
C           6.52735898703874   28.68933903680766   -1.65579730722349
C           7.13266090109661   29.95618662431857   -1.79419778803666
N           7.56288579732708   31.01497402680228   -1.90265628307288
C           5.12375615691077   28.81713497633757   -1.59642113446134
N           3.99066673133513   29.00299385385370   -1.56499467055881
C           8.67057006846404   27.37741013156925   -1.75026719471930
C           8.99872751945380   25.99132641130198   -1.78237115297711
C           7.76605519149045   25.20377463831560   -1.65438991851158
O           7.67671938272636   23.98628872940806   -1.66899165487674
C          10.28616682652688   25.55365616140444   -1.90054419865587
C          11.32938044901520   26.50278203839404   -1.98495032572580
C          11.01197280910700   27.89110701263323   -1.94724730515438
C           9.66681134868673   28.31317213775026   -1.83152495976271
C          12.06104447749739   28.82913493740962   -2.02382214202651
C          13.36191811446505   28.41763973889634   -2.13183135820067
C          13.67307116819575   27.05055591341387   -2.16969816614247
C          12.67812751818211   26.11323987052945   -2.09873680312572
H           2.17833007235579    0.15414878495981   -3.33114004569107
H           5.22397605268033    3.53123198690148   -1.28244799465303
H           6.96780120451467    2.90002642227382   -2.84505564739845
H           7.76398132566915    1.51797306639664   -4.72151268103990
H           6.28090837540248   -0.16195574419307   -5.74396323597444
H           3.98827844330396   -0.47215028102982   -4.89793337370420
H          -0.82865688489199    2.69791136544618    0.21751767320686
H          -3.22083107705357    4.37195596052994    4.36244918089028
H          -3.26975576607853    6.77970862809301    4.54441226372749
H          -2.24435202317305    8.81584775152892    5.06242701034884
H          -3.60494750071019    9.00373167867087    3.91724731049778
H          -2.28249575125069   10.20013897161219    3.94217881672681
H          -0.49521509559309    9.16498928826640    1.55091085846120
H           1.85982387391926    8.37701262817602   -0.24659740546643
H          -0.38929732608570   11.29265797922400    0.98198250238277
H          -1.66845015087852   15.81203240270962    0.38576068803524
H          -4.23623662737880   14.27283089798289    4.26212130578093
H          -3.03025999728636   13.13126607263136    4.88688202723654
H          -4.18549273341702   12.61546195395414    3.65514237303947
H           4.24503155174072   12.05119831859037   -2.64176691347110
H           8.82597677912380   13.98464309456280   -0.82225437671073
H           8.44563672604744   15.30835261758921   -1.92139282579908
H           8.84037250907508   13.70513204788515   -2.56973329213217
H           4.02696039543380   16.51281662211802   -1.08318409561482
H           0.65722569720344   19.59784585372346    0.42050088349827
H           2.83373761467907   25.35304343116455   -0.33464104013610
H           4.70378378464719   26.68634815968080   -0.98899247203645
H          10.50672595031472   24.49675140195847   -1.92443457458156
H           9.46191096186660   29.37138923589270   -1.80270405130894
H          11.81666537263697   29.88081724292241   -1.99511266797498
H          14.15847004828618   29.14424958647819   -2.18838906467855
H          14.70468706363171   26.74341508073345   -2.25461018837779
H          12.91150627871481   25.05890037897559   -2.12694007446037
