126
 SCF done       -260.797509103317          0.000399778103
C           0.17055379074598    1.51392198266599   -0.87512865344719
C          -1.15579420948754    1.58325294034180   -0.54191128343511
C          -1.83109345279766    0.58601885955862    0.19131459026138
N          -2.41829675455004   -0.18936516603004    0.80011111103346
C          -2.00969264772240    2.62206819992061   -0.96763210490996
N          -2.73662299107713    3.43544122092937   -1.32475477829193
C           1.02791895088988    0.34816482039622   -0.70363648137919
C           2.11801088741813    0.44928770246299   -1.61816545411839
C           3.06457046196554   -0.53007997922013   -1.71471696929603
C           2.96676400536657   -1.66751110337766   -0.88222088962638
C           1.88861881258536   -1.76586186579291    0.04527800216649
C           0.91970053836859   -0.73942250061318    0.12070538391688
C           1.80676899500395   -2.90390340237973    0.87327410156023
C           2.74110624817261   -3.89988386919701    0.78827657088945
C           3.80114671057325   -3.80300874078280   -0.12577582729900
C           3.91152205564900   -2.71098422662720   -0.94316776419740
C           2.02219890089764    1.71871136822173   -2.35930635845072
O           2.72986402397754    2.12517957115764   -3.24846409737565
C           0.88586814004359    2.45323086140465   -1.71863952494907
C           0.75973257148564    3.78827436293527   -1.90829687557776
C           0.04641857492899    4.73317382329892   -1.11944992257274
C          -0.40748929697212    5.97101216305670   -1.55789772737236
C          -0.23430586052511    6.36061627741905   -2.89823037092572
N          -0.04295217033373    6.63361604627617   -3.99426477184283
C          -1.04089474840928    6.71737212543175   -0.53324354841796
C          -1.00719893500488    6.02864963842791    0.67862618900013
S          -0.24768473396074    4.49245926251067    0.59043599615610
S          -1.73208995334857    6.84934683791909    2.01681039987866
C          -2.10324503919548    8.15703426938203    0.93819795678096
C          -1.69410405817508    7.97569973796108   -0.37644275223536
C          -2.04443590036419    9.09400920109000   -1.18532988558713
C          -1.76623358842550    9.19329993760297   -2.55858703701737
N          -1.53873359833555    9.27311139243253   -3.67960668571849
C          -2.70027256389929   10.08195643840347   -0.46760505765780
S          -2.90038405377984    9.65433188250832    1.21922154793715
C          -3.19808572550922   11.33967912884995   -0.91467007572567
C          -3.83992975795764   12.26716114335050   -0.14088358764575
C          -4.21886116857952   13.43297346412533   -0.84405095306523
C          -4.86271922640834   14.58253865615023   -0.34070770974859
C          -5.19511964517038   14.74881310182633    1.05850162796032
C          -6.29584381899609   15.35719428725758    1.59273679540152
C          -6.27150112501671   15.39644369970643    3.00324968480179
C          -5.15902763668079   14.83908218406816    3.56480224784492
S          -4.11229971631244   14.23476466826283    2.32696196372406
C          -4.80059164028676   14.72360515259991    5.00029465312898
Cl         -7.54667545335244   16.09203727477574    3.92341733761344
C          -5.14554756632110   15.58273352207144   -1.26665445843992
C          -4.79457897671299   15.50049522476871   -2.63774799208497
C          -4.12468998946900   14.36364882803151   -3.13538980723920
C          -3.87101911321193   13.34986744803300   -2.21600103729259
S          -3.04680415683331   11.85856044723285   -2.57796741687865
C          -3.68504673500517   14.24918742256822   -4.50996736399019
C          -3.65514615679746   13.13016929420156   -5.29340289294605
C          -3.09959855331000   13.36727452846309   -6.56913201133913
C          -2.68619911505420   14.65181199428508   -6.77550156797851
S          -2.99981703922057   15.60665436868091   -5.36714757328250
C          -2.05101463230547   15.24307805354649   -7.97941710680701
Cl         -2.96151350395663   12.12801266297355   -7.75310870080341
C          -5.19886393264259   16.65313695120910   -3.34776412492580
C          -5.79520898090044   17.60326804426911   -2.56511152696632
S          -5.91123875645589   17.10291539474141   -0.89304929113539
C          -6.28824584014818   18.86058076105974   -3.01833806445195
C          -6.84088903931242   19.90315442918386   -2.29068573656744
C          -7.02375342994172   19.85488333808706   -0.89875843982786
N          -7.17838934937267   19.80994867915201    0.23643011992982
C          -7.20221653236529   21.00890238126122   -3.11266485157861
C          -6.91754079194407   20.75738612890710   -4.44760501272198
S          -6.20849186700799   19.21817322855858   -4.73147479085199
S          -7.32636531883691   22.03823131243271   -5.54857426654389
C          -7.88893289783587   22.95673921288993   -4.19639727225972
C          -7.77300288432297   22.30923980312691   -2.95889597718702
C          -8.23916407630652   23.14180976499263   -1.92517593968856
C          -8.28799327025727   22.81235057093654   -0.55898229342624
N          -8.37107882385093   22.58110314966092    0.56047961462904
C          -8.70529463650496   24.38502185474955   -2.38843759913014
S          -8.59301579893088   24.52049402231592   -4.13182105622342
C          -9.14509989351484   25.38951029574723   -1.50345578721205
C          -9.69704930582648   26.60964624592232   -1.77813123617981
C         -10.10782209366610   27.60267103650485   -0.79736927718521
C          -9.75048688670970   27.65021826149054    0.52065668128508
C         -10.18956997724360   28.64339788547415    1.42468955398001
N         -10.52061666037360   29.41065150478175    2.21030045304534
C          -8.85049473823244   26.75933282051517    1.14996542502401
N          -8.09379450460066   26.10797408594042    1.71441452927162
C         -10.90116268373099   28.60838471777204   -1.50313073758730
C         -10.89638661620105   28.30650888517434   -2.87824982703302
C         -10.10930349895408   27.08202648990843   -3.10784914167940
O          -9.86776917550722   26.56572571943233   -4.18311433078001
C         -11.55836781299938   29.08994939671931   -3.80058192251053
C         -12.24577031733896   30.20919861873715   -3.33640543413445
C         -12.24622922465559   30.52301328819327   -1.97283549580155
C         -11.57737090878627   29.72955144670723   -1.04740562333068
C         -12.91161129228011   31.79307471510112   -1.50975262589623
O         -12.38696496460708   32.87020415762122   -1.58950363802280
O         -14.08531777341508   31.54201137165352   -0.94513031864194
C         -14.82264849673366   32.68176837012179   -0.51631523440971
C         -13.03301008159338   31.08015444459046   -4.25115537023477
O         -13.88433130300010   31.84584868628090   -3.87250180047814
O         -12.70394392375171   30.90409093879853   -5.53011542629854
C         -13.41298626691777   31.70191530326284   -6.46941506465425
H           3.87755006568340   -0.43928987135761   -2.41957265526642
H           0.11863300735271   -0.83214995331730    0.83763503577493
H           0.98689803415982   -2.97570719461367    1.57269497700504
H           2.66803964142928   -4.76893249985591    1.42466832143041
H           4.52966549948236   -4.59801440503690   -0.17899224520495
H           4.72521824135694   -2.63108399096940   -1.64894131386422
H           1.33022260512849    4.20495071327538   -2.73440791042978
H          -4.03834685952766   12.10650153524973    0.90319314193265
H          -7.11939462353434   15.73569164439354    1.01676403623432
H          -5.66100046256204   14.98348570557366    5.61181665593423
H          -3.98087475407779   15.39921080537014    5.24609525296947
H          -4.48305683833748   13.70970848223716    5.23802867953033
H          -4.04345900605634   12.17289897157061   -4.99990365581710
H          -2.05619813457338   14.51538735899240   -8.78685849000758
H          -1.01975335708988   15.52665732307276   -7.76876184913409
H          -2.58602500383718   16.13645311004691   -8.29826414308434
H          -5.06146276396552   16.78291087617318   -4.40586128208116
H          -9.02865612089744   25.11897874241233   -0.45904267622573
H         -11.54806936329941   28.84005035252137   -4.84971935064601
H         -11.59848967742796   29.99715713516008   -0.00349571872845
H         -15.69254469717252   32.29966138985008    0.01099014236045
H         -15.12414156784131   33.26827822158975   -1.38570993707741
H         -14.21106938122068   33.30307250916347    0.14063461917930
H         -13.05038675373133   31.40820269143373   -7.45106848865868
H         -13.21774872231873   32.76066476549157   -6.28779871749495
H         -14.48681303958379   31.52277124142563   -6.38404535618126
