94
 SCF done       -193.533430433502          0.000928611440
C          -7.36581666057922    3.04504945657712   -3.35921574901997
C          -6.09752265237837    3.45045609728655   -3.04281224238513
C          -5.58956846700183    4.73383535456729   -3.32928770368321
N          -5.13565293615824    5.77251647994587   -3.51153475012225
C          -5.10646570320424    2.60770465365801   -2.49853293292826
N          -4.22867125714678    1.95792653173152   -2.14388922203513
C          -8.30003842109630    3.78002446306725   -4.20594275257717
C          -9.27889888087819    2.86843751087678   -4.70154886645532
C         -10.25671754059998    3.26665185394451   -5.56733747279008
C         -10.30678316120270    4.61824755405124   -5.97665629797261
C          -9.34334211254650    5.53794251217307   -5.46980835589473
C          -8.33885699925912    5.09667543980802   -4.57799693514136
C          -9.40772447229637    6.88463080878372   -5.88144103928628
C         -10.37334773867286    7.30419816076903   -6.75536540584996
C         -11.32022456728324    6.39777105827235   -7.25553369566984
C         -11.28787894812000    5.08379845140155   -6.87428485656882
C          -9.04084508456156    1.53454534028402   -4.12372706645086
O          -9.63772026381724    0.50511728117429   -4.33997071476814
C          -7.92897629610263    1.72818554263741   -3.14735340177612
C          -7.71259686431625    0.78702441998160   -2.18930726754069
C          -6.99293515545655    0.93210090059687   -0.98659667813167
S          -6.60064973071449   -0.51555529406501   -0.01822576887916
C          -5.84249322121689    0.52139136179806    1.10308114969420
C          -5.95779830770715    1.86281415069258    0.68914879691089
N          -6.58504949025334    2.05718166290671   -0.45462395444903
C          -5.28273465754407    2.78021314823291    1.65500281397001
C          -4.76531917821026    1.80200443632209    2.66719985246491
C          -5.10946363642456    0.49028092309842    2.30581910505342
S          -4.51821200966130   -0.67211632905081    3.41253757549955
C          -3.80152478373746    0.60069560802330    4.38336820019012
C          -4.03233425384867    1.86048699198741    3.84058363057589
C          -3.08626839107157    0.24021548320289    5.54888201721697
C          -2.52413397536110    1.10784265402454    6.42800822091079
C          -1.79682363744947    0.69836461942398    7.56914514033615
C          -1.21714319199689    1.51092693190103    8.52533900001137
C          -1.04501666562936    2.94761749773839    8.77172738094495
O          -1.44313093048471    3.90422613577264    8.15677129723942
N          -0.26422990876548    3.01686328583880    9.93241632756501
C           0.16385845699400    4.26194970716984   10.52170335650929
C           0.06669688424281    1.78235449180592   10.45508075212473
O           0.73235924284415    1.59541825228306   11.45056520168620
C          -0.54844264186694    0.80887492853374    9.54412189058840
C          -0.57265112348863   -0.56017715862235    9.39471874177470
S          -1.47279100980022   -0.98549227259414    7.95476693642144
C           0.08038626031436   -1.52118428223339   10.19961096949990
C           0.30025637519125   -2.85997534671109    9.95681592567236
C          -0.03523117973877   -3.83421053279811    8.91017293117952
O          -0.71147986250881   -3.70448378327649    7.91870018403360
N           0.59629008018453   -5.00611386340597    9.30509891487169
C           0.52947009738506   -6.22860737715900    8.54273693859028
C           1.29930543625770   -4.89693882900596   10.50359050350551
O           1.90214676480155   -5.79168042468040   11.03497972929418
C           1.10180407711613   -3.49505475188199   10.92299432901124
C           1.53098783019714   -2.66090680842049   11.93150466092479
S           0.85430284135965   -1.05844327300983   11.69255317467146
C           2.35086408444178   -2.98114956996402   13.04557433973308
C           3.03923115447358   -2.12027781080587   13.83590955007960
C           3.46447279549990   -2.54266036942965   15.20366579185051
O           3.54350658008848   -3.66731290947249   15.62829361555217
C           3.68695530130883   -1.27296162064081   15.93310363158443
C           3.56501514507934   -0.18746426982291   15.04604081847189
C           3.69343048018790    1.11212191942128   15.50949998780172
C           3.94914336694272    1.29538553326826   16.85968226235854
C           4.08541787342153    0.21326321746897   17.73304129794625
C           3.95330704323297   -1.08808867898940   17.27659082349176
F           4.34079417128359    0.43853318476639   19.02610588024866
F           4.06446424599862    2.53822949664023   17.33633123890749
C           3.33992483418555   -0.70263268996174   13.69818507934969
C           3.63822963871396   -0.04115679539632   12.54098923908190
C           3.69413078512992   -0.67213979147573   11.27787311404394
N           3.80172436002632   -1.15571684152185   10.24308166609196
C           3.99464579146975    1.32304852784066   12.47877932391361
N           4.28250395154694    2.42791082095132   12.37178004994789
H         -10.98302283193239    2.55857895163938   -5.93793248895723
H          -7.62657353281860    5.81502960051116   -4.20323616536853
H          -8.67423770807190    7.57768149988105   -5.49624758656486
H         -10.41228788609487    8.33720906745456   -7.06709057942599
H         -12.07515665276414    6.74592041532260   -7.94446642725937
H         -12.01427402364614    4.38146332932069   -7.25629465069467
H          -8.21208628864946   -0.16423295029326   -2.33712045603223
H          -5.97525899243458    3.50502487983326    2.08657502904216
H          -4.47718575196978    3.33660851422094    1.17152725402703
H          -3.66580456204305    2.76510046424730    4.28934426538422
H          -2.98739421314024   -0.82176172926945    5.73913778990128
H          -2.60795946907593    2.17726062380721    6.29577472437809
H           0.04840017000923    5.04527673146209    9.77479207341500
H           1.20641152956919    4.17561173185849   10.82675746780015
H          -0.44385511224431    4.50017620980379   11.39678074496856
H           1.05353459728535   -6.10972417457209    7.59328897293877
H          -0.51161493041442   -6.48194575343762    8.34178166905490
H           1.00260898214221   -7.01354955960754    9.12976126137766
H           2.37507543738842   -4.02903753427058   13.32892320119393
H           3.58751766833889    1.97300226592011   14.86945215486306
H           4.05524359097158   -1.92302575191138   17.95148151704210
