140
 SCF done       -223.992927297599          0.000731133435
C           1.55438046514212    4.20222464383656    5.39085732792775
C           2.10586844455616    5.12781621167485    4.54483496436727
C           3.01112592794091    6.12703270940729    4.95305644403935
N           3.71923641858090    6.98284327349949    5.24377687659661
C           1.88244721490165    5.14024086227589    3.15336440844874
N           1.78373963524997    5.16670679107572    2.00995088269989
C           1.96999241460758    3.95847478537990    6.76727140929886
C           1.54325742818098    2.65097568031369    7.14345720075007
C           1.83381374739262    2.12773442348941    8.37010984829890
C           2.56807446550164    2.90418156480706    9.29484949700128
C           2.98315073465031    4.21779256141317    8.93072021793975
C           2.67344051158683    4.73228102002038    7.65087171656300
C           3.71041212407248    4.98328940749030    9.86479703275450
C           4.01800451566676    4.47619412607063   11.09773087660312
C           3.61053029550194    3.18212888173385   11.45473173496739
C           2.90109390030472    2.41321017942933   10.57264419301217
C           0.78361324765582    2.04732682375544    6.03302530870988
O           0.31337380099285    0.93460874816694    5.96855654913433
C           0.65420077737719    3.12898747017394    5.01408264403907
C          -0.27481185756454    3.01587309944811    4.03395045621430
C          -0.83360019850028    4.03564660121375    3.18715830945259
C          -0.93749590942332    5.37049587653063    3.61303165492346
C          -1.50924763180984    6.29955921713214    2.78291362924183
C          -1.98547679661728    5.92832804082276    1.51198411171395
C          -1.89965048977538    4.61023408138132    1.08612924977743
C          -1.34261256929973    3.67429774203814    1.93209351969805
C          -2.53899040954962    7.10064572674986    0.87120209556403
C          -2.40513537541259    8.19389784626566    1.74361735539991
C          -1.73451608535520    7.77271025398013    3.02894068070630
C          -2.65061232689203    8.00536980660558    4.24486382734700
C          -3.99562794104244    7.30031182458801    4.11588391829972
C          -0.40029192750662    8.51588081058874    3.23380136074986
C           0.52249871476809    8.42586200625226    2.02450235198755
C          -2.86098193507753    9.43807578831676    1.38290489705167
C          -3.47491174138503    9.61737208631892    0.13612151933001
C          -3.58981621227992    8.52133677555768   -0.72936017927632
C          -3.13000960453614    7.27007738242666   -0.37236662720302
C          -3.99549086516012   10.92271198587803   -0.24456280698502
C          -5.03871864134544   11.08132147973506   -1.10888001528794
C          -5.59491984306665   12.30747771602471   -1.50128841239519
C          -4.97365132899090   13.57382768103884   -1.08324045989266
C          -3.94554269871641   13.65634399620101   -0.21226479404351
S          -3.20051474483978   12.29550883221962    0.51823158696897
C          -5.69149930862390   14.58994658033083   -1.76935217720896
C          -6.69208936130384   14.00821988016694   -2.54746065697263
C          -7.44909142359788   14.97233229845703   -3.24890169563761
C          -7.01147063478068   16.23293139560231   -2.99367073357665
S          -5.67435470332283   16.30579217360334   -1.89498984288652
C          -6.66126277851350   12.57999567681776   -2.36526205627279
C          -7.57921519296962   11.68139310354242   -2.98764757428726
C          -7.90242630940905   10.45651285819901   -2.52168747668807
C          -8.75812200888970    9.47812855427084   -3.14350948616073
C          -8.86516095141669    8.22136769052533   -2.52255719306704
C          -9.62182958287680    7.23016018469722   -3.09445205725592
C         -10.34764443292075    7.48882950323510   -4.27357198932447
C         -10.26128949874417    8.72994491534444   -4.89305724370220
C          -9.46049265698240    9.70400450617191   -4.33622731523907
C         -11.12472820397816    6.31869595827051   -4.60118229670957
C         -10.87390031458794    5.32993459854709   -3.63240480914747
C          -9.84587513303088    5.80996913001521   -2.63120798395605
C          -8.58464569289396    4.93398039192859   -2.82297175094898
C          -7.34356011092137    5.37568808861084   -2.05823897828723
C         -10.37077365155965    5.73403135733173   -1.19002566662407
C         -11.67220343168667    6.50620919426376   -1.00603319931115
C         -11.49366306842140    4.10897856798266   -3.68456697530497
C         -12.40958693125986    3.84144494280555   -4.71836784518683
C         -12.64712764723512    4.84315647708390   -5.68568287514250
C         -12.02039925464982    6.06668379047244   -5.63632810220217
C         -13.10509690548001    2.60575068574687   -4.89926393274090
C         -13.20442518120010    1.44543645157627   -4.18247530608461
C         -13.97166080660134    0.30247853569571   -4.67191716563431
C         -14.47846131544811    0.11942601841395   -5.93311092553677
C         -15.19478076765134   -1.02812670304741   -6.33540689775044
N         -15.78804281930710   -1.92584620382078   -6.73661301378954
C         -14.35615658058685    0.99322042565195   -7.03463209887368
N         -14.30870124375196    1.61746240571145   -7.99867385462499
C         -14.05998472473293   -0.68090423228238   -3.59960620338516
C         -13.30147505591814   -0.20524420129136   -2.49627434619798
C         -12.71330270836766    1.10501023062848   -2.82342631134796
O         -11.98715791300620    1.73793964946084   -2.08284408594518
C         -13.18167795434415   -0.91513970007154   -1.33671973892931
C         -13.83263139716232   -2.16346518906216   -1.22475810404704
C         -14.60005712405874   -2.64694009697055   -2.32309075037726
C         -14.70490583793392   -1.88674226631946   -3.51048290900720
C         -15.24594130094819   -3.89432211582529   -2.20202308091579
C         -15.13881750730425   -4.62997637568462   -1.05341647544509
C         -14.38329759511666   -4.15212956471182    0.02778726824913
C         -13.74434228999283   -2.94502244260400   -0.05611775023483
H           1.50996938699418    1.13145804256745    8.63230607838215
H           2.99363528436061    5.73235490136262    7.40227650291149
H           4.02490467225580    5.97780686508534    9.58399146552881
H           4.57826462598172    5.06931269294121   11.80493458796070
H           3.86164313439444    2.79767012702468   12.43196893585772
H           2.58464407663489    1.41610495892698   10.84200059826446
H          -0.69802284968425    2.02162798635707    3.92242185668215
H          -0.60467156285573    5.64505749612552    4.60389979750139
H          -2.26881746470286    4.31918148084617    0.11454197508134
H          -1.26407839632913    2.64381285929964    1.61828756567174
H          -2.81443503430738    9.07902235364433    4.35767027041648
H          -2.13856314949511    7.65095371365699    5.14202240416941
H          -4.53023195428132    7.65231826706148    3.23637661409054
H          -4.60747538539476    7.49838885112259    4.99289471577793
H          -3.86043508008030    6.22458117799166    4.02639258645255
H           0.10320370613353    8.09545553565774    4.10751986910804
H          -0.61452696372282    9.56539879383980    3.44763304776443
H           0.73512924176724    7.38944657892284    1.77218426551381
H           1.46473038158228    8.92404177961293    2.24023436200055
H           0.06984522090786    8.90410689136592    1.15889129063065
H          -2.76728478261849   10.27608069095587    2.05823412337951
H          -4.02340322826821    8.65916757813109   -1.70814333992030
H          -3.22550945991056    6.44082795108589   -1.05675723146844
H          -5.46592767009844   10.18389064652815   -1.52963506012821
H          -3.52104579293425   14.59769812404521    0.09966169730595
H          -8.27115250516568   14.75309682323705   -3.90621144370262
H          -7.39471082229435   17.15430636809451   -3.38696397139180
H          -8.05329784554049   12.06019426757551   -3.88375911218232
H          -7.49145342583488   10.14580528248996   -1.57058830853110
H          -8.34506299594211    8.05386376530435   -1.59048633691187
H         -10.81499480371754    8.92953276006269   -5.79860651946829
H          -9.38756801943031   10.66510527887655   -4.82140174176187
H          -8.34766972727016    4.91607671318200   -3.89038456275382
H          -8.84507578783954    3.91617260953104   -2.52553595942137
H          -6.99842076074729    6.34631927623568   -2.40457000630902
H          -6.54533433876725    4.65511879787331   -2.22407720662690
H          -7.53166128189251    5.42727011223722   -0.98909860179724
H          -9.61828226390704    6.13838942704508   -0.51151966968744
H         -10.53257867845848    4.68583681017141   -0.93242015423276
H         -11.53549495022062    7.55704042348278   -1.25385224974969
H         -12.00618800025898    6.43638644653021    0.02664769020106
H         -12.45244696776732    6.10124142148021   -1.64645786481683
H         -11.29325213596947    3.36047454817597   -2.93842244257566
H         -13.34195672343745    4.63669588558160   -6.48746791429998
H         -12.21991880812827    6.81580018594329   -6.38783874988069
H         -13.68311531444158    2.60539424845477   -5.81677155608077
H         -12.59586365786544   -0.52834522610088   -0.51595062251320
H         -15.29913872251247   -2.28084011356944   -4.31902624832743
H         -15.82557385931797   -4.25868129125054   -3.03754776923536
H         -15.63542696222900   -5.58526659380327   -0.97156394828143
H         -14.31042781254789   -4.74527499285881    0.92722413613546
H         -13.16113212279159   -2.57134352916753    0.77295945552564
