100
 SCF done       -184.079087281883          0.000597168768
C          -2.23411123091614    2.82808404014949    3.34322628330948
C          -1.70176534585918    3.94543077535649    3.94362165471278
C          -2.42797232760730    4.81043310359706    4.77760085287644
N          -2.97097539410700    5.56602891879210    5.45324779087486
C          -0.32884595294245    4.25204608470493    3.86962995176708
N           0.79744117059774    4.47779244374924    3.89495422579155
C          -3.51327260186286    2.21411258983108    3.67963007768724
C          -3.47495421944674    0.85060014998441    3.26390101773134
C          -4.51976223490695    0.00449361379610    3.49300272898384
C          -5.67387592927047    0.49466271623352    4.14754431223057
C          -5.72315183479876    1.85991666410771    4.55087576937153
C          -4.62038960563511    2.71260386332191    4.30890269664793
C          -6.88194602736612    2.33566184997183    5.19631758198630
C          -7.94174343543697    1.50375950249114    5.43658231070428
C          -7.89186789860166    0.15944889679724    5.04078163633408
C          -6.78179376688060   -0.33411754679195    4.41005097775147
C          -2.19155692748512    0.58453370869848    2.58221531868328
O          -1.79086986748861   -0.46636996838752    2.13329935679783
C          -1.51870946533523    1.90620482286807    2.50068127775865
C          -0.50616366332983    2.09216941856068    1.59905477586268
C          -0.06935232769170    3.27485487974448    0.98385915570773
C           1.00923306423496    3.38290410745393    0.09982574386274
C           1.10388918410501    4.64136991840237   -0.52064263502148
S           2.32918664417868    5.12944603586232   -1.68273635060617
C           2.93327970789549    3.50054421260953   -2.23593705599627
C           3.43393213282990    2.68245404450820   -1.07003685317550
S           2.05665753972132    1.99660052638943   -0.09341939231166
C           0.11848302726685    5.53170549606044   -0.10131286405095
S          -0.93905591247284    4.78252852351668    1.06369436605872
C          -0.15487748723950    6.87824918509574   -0.47071695048659
C          -0.98775331311807    7.65377982299729    0.30893695616017
C          -1.40000445842570    8.94543164229582    0.01478496534228
C          -1.09635105705522    9.55476306597508   -1.28713162525475
C          -0.24921707601255    9.00389901119640   -2.18194535536388
S           0.55754968447170    7.50238067932180   -1.95505029563429
C          -1.84260985448254   10.76423543463906   -1.31759595108507
C          -2.54348311578806   10.91556937005624   -0.11783342956455
C          -3.29436953763708   12.11147711642327   -0.08558141989858
C          -3.15161583191978   12.81958780576740   -1.23557153949709
S          -2.10134266043916   12.07542339917246   -2.39671037513111
C          -2.24251000307842    9.80865928102269    0.74769230888034
C          -2.67616310793963    9.69063602230047    2.08837594366697
C          -2.02902743279055    8.97412908934681    3.04783114290259
C          -2.44559685982283    8.86053724995220    4.38953523925719
C          -1.68493529923282    8.27075616581297    5.40471059106236
C          -2.31717048906654    8.32452388157820    6.64586965012682
S          -1.69611832784439    7.75448074667752    8.17513128012141
C           0.05682870255335    7.46471618977781    7.76842413334102
C           0.20580383826715    6.61810862141030    6.52660803347799
S          -0.10642332786910    7.59755050704176    5.02904059088644
C          -3.59506554681535    8.92380892136441    6.59071849412104
S          -3.97659908277243    9.43353981213413    4.96552234362299
C          -4.38458731606117    9.09539337294665    7.72649114851480
C          -5.63532238793102    9.65254741596591    7.87113395249351
C          -6.34241679723733    9.81035829520767    9.12242506807921
C          -5.88558591579617    9.51993946356290   10.38521772782768
C          -6.64063266819060    9.71316234518675   11.55950859979909
N          -7.19798796212828    9.84238680401984   12.55579997521642
C          -4.61311445843400    9.01215925102397   10.71752083896035
N          -3.60494843358693    8.60837747235532   11.09412417063297
C          -7.65479150764551   10.37807911954239    8.81843496080102
C          -7.74110694404090   10.58678668320715    7.41259125173216
C          -6.48089898087502   10.15375101402489    6.78527756528947
O          -6.21276387790061   10.20858508932427    5.59572619600549
C          -8.85397847490969   11.11336984460738    6.82546363822777
C          -9.95841145293841   11.46479500659922    7.63498182247745
C          -9.88151450456392   11.25992236190557    9.04180097917803
C          -8.71286389847063   10.71048719155463    9.62031720312852
C         -10.98660912718553   11.61518724189554    9.84077561263364
C         -12.11515854467936   12.14807282578066    9.27909367365584
C         -12.19016053875399   12.34878446818960    7.89323979399473
C         -11.13448844408830   12.01412067969186    7.08876110647268
H          -4.46947183211322   -1.02809523990410    3.18092142277286
H          -4.68348876201598    3.74484846356062    4.61781705418676
H          -6.91464389848253    3.37129274135618    5.50193080273498
H          -8.82408149148390    1.87778116492615    5.93414894483280
H          -8.73678774872178   -0.48347852075485    5.23752723676037
H          -6.73791107465847   -1.36882313002236    4.10266040104607
H          -0.06149786340182    1.17948355618901    1.21117353060104
H           3.74278938394438    3.73229086594000   -2.92784321312588
H           2.13133720533256    2.99093158073787   -2.77075892826974
H           4.06425260961144    3.27865017821105   -0.40958840272279
H           3.98901256551960    1.80780477966666   -1.40974520910051
H          -1.36727090328951    7.19530714406591    1.21197912738353
H           0.00484087843135    9.48018682162303   -3.11563102598192
H          -3.90714894840424   12.42962496672288    0.73789252158154
H          -3.60286472655038   13.75860134281933   -1.49030377450854
H          -3.54274722121342   10.27186570713669    2.37770576043634
H          -1.08355053854611    8.50001959609763    2.81970402804386
H           0.45584155427750    6.95153363158211    8.64352453014052
H           0.55312471134095    8.42922936658163    7.65554754063522
H          -0.48361989104537    5.77383185441345    6.53796835644668
H           1.22563773125358    6.25206504876365    6.40975609703220
H          -3.91686430512533    8.72175578445263    8.63064577817291
H          -8.89250008975136   11.26197022776189    5.75634933866075
H          -8.68959571394577   10.56710288022893   10.68866172642781
H         -10.92347177015653   11.45917288064651   10.90785380927769
H         -12.95607029764814   12.41818029043001    9.90042458991558
H         -13.08821073210467   12.76970185176516    7.46589484593601
H         -11.18663145213269   12.16645180480183    6.02034838161761
