106
 SCF done       -193.967007864545          0.000606976107
C           1.54734397127475    2.69322499640400    1.25803933640908
C           1.57890672327460    1.51692634226603    1.96941718510347
C           2.71332412929817    0.68685864585073    2.07271056720035
N           3.59673902280375   -0.03572803191975    2.20277261876096
C           0.50527628246431    0.95999333951826    2.69099452527781
N          -0.31925345802786    0.44087472590124    3.30207199514114
C           2.67360903735239    3.25408949044918    0.51489014311885
C           2.24727315237256    4.46307451387133   -0.10637917519344
C           3.08729847638760    5.22137173785612   -0.86795357812416
C           4.42500814000400    4.79931082461378   -1.04445422085946
C           4.86102249824869    3.59312352429954   -0.42575936963095
C           3.96371284520055    2.82644696018822    0.35511796752277
C           6.19748803871332    3.18374330221733   -0.60376816351890
C           7.06430470818260    3.92945637448884   -1.35624599674132
C           6.63377188426251    5.11685301073630   -1.96531280120362
C           5.34151914161433    5.54232572610704   -1.81310031662033
C           0.83585875741160    4.70132617790198    0.23189257716377
O           0.14857471214330    5.64120168596586   -0.13900281109640
C           0.42889264168403    3.59475530396203    1.09839285446288
C          -0.80745006195093    3.44741461576794    1.69256268991970
C          -1.93956179332587    4.25391604118815    1.64843903457115
C          -3.12836150195598    3.96666542751613    2.38120164146113
C          -4.12978906233894    4.95920832448255    2.22000914567205
C          -5.36179240593948    4.82690201101621    2.87837997666284
C          -5.58336711845658    3.73302542560841    3.67449489781752
C          -4.59520481619072    2.75244376336771    3.83398079210028
C          -3.38153497356204    2.85781482657835    3.20172631835427
C          -3.71767848827809    5.99639235212570    1.34881043959515
S          -2.11702597415801    5.73574993171804    0.75403756549250
C          -4.46532232245001    7.13656858100366    1.00035077798410
C          -4.08091717259858    8.05416444110866    0.06961875237281
C          -4.80211608865182    9.22231234941731   -0.24833894662006
C          -4.50692785017201   10.13196364422019   -1.25633882981489
C          -5.40773709582577   11.19010521414219   -1.29407869659237
C          -6.39920400725652   11.10399584969396   -0.29484869429612
S          -6.23023538391797    9.70458542382701    0.66835480287101
C          -7.24330490333627   12.23156788629533   -0.39520226173947
C          -6.79972810184483   13.03021206341633   -1.46786796829845
C          -5.63811799790642   12.39769483711753   -2.07134583458077
C          -4.92694785051146   12.84053260854876   -3.14818791728476
C          -3.80822274769950   12.14444586694722   -3.65168621246431
N          -2.89806712264104   11.58309733510440   -4.06540937747421
C          -5.27619781180332   14.02210393457846   -3.83478579001668
N          -5.57036427959026   14.97834668949370   -4.39566518249731
C          -7.55382887135712   14.18706029735560   -1.63791594194415
C          -8.57412943089856   14.29041377747363   -0.70352238438165
S          -8.58550704478597   12.91807061453984    0.40729224189301
C          -9.50793492545790   15.33636368192528   -0.52181308949878
C          -9.96442102349588   16.29985071330750   -1.44545010074550
C         -10.85547368020131   17.24006049636020   -0.84865229949538
C         -11.40043714640209   18.27518946107557   -1.62666309865021
C         -11.08674193730965   18.35463687078084   -2.95662918584801
C         -10.24520349477796   17.40327917454373   -3.55589860790147
C          -9.69217287952198   16.38808951015858   -2.82339948565352
C         -11.09092044966244   16.99052159169075    0.52119560227685
S         -10.21833024674399   15.58048953782770    1.03636846472816
C         -11.87379023849525   17.73689351300679    1.40905488773428
C         -12.01305991711567   17.46424500550295    2.74393030083866
C         -12.77769171473101   18.28121574525046    3.58909992078421
C         -12.91026667348041   18.10604307972810    4.94485994622680
C         -13.65963552016534   18.94371807172676    5.85441785453676
C         -14.46004117948157   20.01272118877578    5.53004286474233
C         -15.17044006070246   20.78373470269079    6.47222068460935
N         -15.77208466593571   21.45589619009859    7.18334548408569
C         -14.70416920182610   20.49278232103067    4.22813453116625
N         -14.95944017810357   20.94200338498631    3.20138205935029
C         -13.43218875100330   18.44596318070728    7.20857199367170
C         -12.59389508513713   17.29756009742664    7.13463567955365
C         -12.25006514768568   17.03323213338040    5.72560324463582
O         -11.56028634857366   16.12252179524340    5.31041701405846
C         -12.20449263630714   16.61428312682303    8.24948513559376
C         -12.63836988666248   17.06057819193783    9.51828179909066
C         -13.47257996631194   18.21180402723335    9.60211856089441
C         -13.86438685539146   18.89562082918990    8.42758311722777
C         -13.89354661909528   18.65372831623692   10.87263254326423
C         -13.50990952152822   17.99162733503158   12.00714075101279
C         -12.68950978551215   16.85709178201720   11.92322027456232
C         -12.26354362832864   16.40122486676308   10.70503750250782
H           2.73858077889050    6.13402800666041   -1.32814692544760
H           4.32724698228568    1.91898146236725    0.81008266375001
H           6.52443674565833    2.26833001774792   -0.13260226937916
H           8.08684955688585    3.60758301822112   -1.48550864781491
H           7.33039640187773    5.69338795290714   -2.55551912349539
H           5.00419928481441    6.45634952505852   -2.27984335373943
H          -0.92588621461757    2.57280418706486    2.31676322410239
H          -6.12586044183967    5.57859385572420    2.75432139821026
H          -6.52774263169050    3.61964115890780    4.18497625824874
H          -4.79502881107068    1.89976668058551    4.46471066636776
H          -2.63848632874702    2.08735126381910    3.33827346445602
H          -5.40826628651723    7.28306434561544    1.51234461905972
H          -3.16309901171853    7.89710762898985   -0.48174218065219
H          -3.67069394600043   10.00592804971325   -1.91985160609609
H          -7.33941091686101   14.94917945411311   -2.36272766305521
H         -12.06640400369023   18.99409431309688   -1.17615193595339
H         -11.50126227592004   19.14647462807195   -3.56156277187443
H         -10.03877695543924   17.47417248636604   -4.61272746297790
H          -9.07314113982170   15.64915303766753   -3.30431956426109
H         -12.38459647817343   18.59960750441450    1.00009846784304
H         -11.50834373888499   16.60952280398244    3.17191633758619
H         -13.27672496569550   19.12268686438596    3.12559848174865
H         -11.56891734296206   15.74513465071774    8.16510879457357
H         -14.49537469000592   19.76435642478929    8.52694706935843
H         -14.52556211119151   19.52775472075011   10.93205966290516
H         -13.83659947072931   18.33906625088180   12.97591501797353
H         -12.39619127021603   16.34638213842166   12.82836523272265
H         -11.63109977730027   15.52819486285970   10.63402941924239
