93
 SCF done       -173.486721676268          0.000634847472
C           0.13409660959000    4.22327004869986    4.14365359535381
C          -1.08043823562532    4.83212495220379    3.94229476230764
C          -1.61858301875975    5.83121416627522    4.77225153916424
N          -2.09153610118189    6.68615040207387    5.37748136472375
C          -1.94397211576436    4.49286494953597    2.88039395496535
N          -2.69349189110340    4.19904283714098    2.06111247493066
C           0.91019141207038    4.27668121082803    5.37626187857320
C           1.79753602460440    3.16063378815034    5.39740681803453
C           2.62303529398401    2.92454246244740    6.45766026846284
C           2.60647588141000    3.81402257033237    7.55675823522777
C           1.73118594477586    4.93790490808785    7.53455327487397
C           0.87938395219838    5.15293461984129    6.42635776997408
C           1.72983637605144    5.81890561536250    8.63476200376166
C           2.55016015258032    5.60126042978470    9.70807234718180
C           3.41074535935287    4.49396020299681    9.72970087472571
C           3.43778574933601    3.61959644075248    8.67713153007343
C           1.65775912950538    2.39988982211901    4.13871869439873
O           2.21464797798189    1.37212350284083    3.82454611977426
C           0.73178057778669    3.20806832491282    3.30382301274689
C           0.66202119579593    3.01175074964364    1.95492285046878
C           0.21320745406114    3.93993038298294    0.99456979564572
C          -0.23905641167019    3.67516384883087   -0.29684701793478
C          -0.67280676882832    4.82922443209283   -0.97714445680862
S          -1.37624745408862    4.87984099838647   -2.58248627088894
C          -1.95839410396261    3.15382411674195   -2.71396445006882
C          -0.80930383346563    2.18430423215160   -2.56858385977812
S          -0.30694049982175    2.01156328505707   -0.82368979638956
C          -0.52766527804066    5.98916440233716   -0.21969975076331
S           0.21423774404867    5.65182000556239    1.30809549249247
C          -0.95270483976858    7.30496419692732   -0.51401824390198
C          -1.25019906496173    8.32183058499355    0.38967432901155
C          -1.70002728304376    9.50272426575032   -0.23317412387775
S          -2.18866001316132   10.98666442739286    0.56175883895216
C          -2.02608439293453   10.62878442106735    2.35078605386221
C          -2.41354281995326    9.21367373813532    2.69171335745553
S          -1.12007956825888    8.06564924083645    2.12050038619451
C          -1.74415827243119    9.40266105868089   -1.62714022178128
S          -1.23110390343084    7.82057297838453   -2.14554293461165
C          -2.10286846146139   10.39127499809586   -2.57453658934622
C          -2.18562329460645   10.27529177543005   -3.96607935346563
C          -2.48903152968271   11.49087845768703   -4.61248737286029
S          -2.81108988139164   11.70596660853887   -6.30820744288487
C          -3.31733450781670   10.00243403349341   -6.73319247724614
C          -2.15640691335594    9.06675098786138   -6.50591823823618
S          -1.91590072000762    8.71769796640563   -4.72839915655895
C          -2.64114541431579   12.55854596131986   -3.72299199494478
S          -2.46127225569613   12.01409002267643   -2.07256981505992
C          -3.00029295416483   13.90328032137523   -3.90691321654669
C          -2.75523062422997   14.70712380968293   -4.99185597987952
C          -3.28110846464305   16.04035389011061   -5.19902801478983
C          -4.33804302715881   16.60954938409736   -4.53582336849533
C          -4.82469537403059   17.90695835195199   -4.79370262200904
N          -5.26062300787849   18.95735246337479   -4.95342501697650
C          -5.10085916429424   15.96804543480243   -3.53834207541079
N          -5.78090846700609   15.50279901271182   -2.73805725127845
C          -2.54323385931351   16.64097755433986   -6.30515233946586
C          -1.61413743568518   15.68120873193460   -6.80022382055635
C          -1.72209859607246   14.44838639603451   -6.00475956538092
O          -1.03798125549291   13.44380773424587   -6.11290622479199
C          -0.78008833843496   15.95628376803395   -7.84374703847650
C          -0.83873515971796   17.22948156024344   -8.45534345623268
C          -1.76150126925154   18.19649211494810   -7.96382463385142
C          -2.61280936023146   17.88213118796193   -6.87841187038980
C          -1.80711278764481   19.46412053847043   -8.57800131555828
C          -0.98268887799503   19.76413091076481   -9.62845980110309
C          -0.07491928082465   18.81087673284249  -10.11197512131251
C          -0.00505620024587   17.57025515722755   -9.53787581907168
H           3.28250015084249    2.06937345897556    6.46064469078291
H           0.22922638247698    6.01433126346493    6.42732378513652
H           1.06335420236065    6.66882948041512    8.61435103698056
H           2.54000889722409    6.28124660240844   10.54685758880676
H           4.05215548254882    4.33716202554942   10.58410583798296
H           4.09872945746596    2.76517250678795    8.68836372079467
H           1.05372287305652    2.07154879445421    1.57842322230490
H          -2.40198448048557    3.08829443407868   -3.70702467740135
H          -2.72492806181974    2.98606473719035   -1.95722409266352
H           0.05312801115364    2.50199381003649   -3.15516117478940
H          -1.10107007518254    1.17750330484977   -2.86808818224821
H          -2.69554050686010   11.35125280031349    2.81854434246735
H          -0.99910537956600   10.83701718188817    2.65169252369529
H          -3.36236645397266    8.92545052506123    2.23965082353104
H          -2.45976585920038    9.06035767729661    3.77000004632107
H          -3.58596663503172   10.04490287108335   -7.78801181348552
H          -4.18944208304688    9.72069220855123   -6.14386648941531
H          -1.23357812005510    9.48412390797624   -6.90933075104561
H          -2.33427506017531    8.08352520929587   -6.94247027237903
H          -3.48053579880926   14.35176911497385   -3.04522559468045
H          -0.08384674830556   15.21186945684201   -8.20056312420215
H          -3.29629027232519   18.63781509113397   -6.52467046876317
H          -2.50843919409782   20.19486337946862   -8.20246334082965
H          -1.02581151944172   20.73825864814743  -10.09230945688289
H           0.56913423986836   19.06386031569686  -10.94105427981045
H           0.69271206929393   16.83191270721741   -9.90561340297875
