114
 SCF done       -237.911051067436          0.000809353665
C          -0.68266589131562   -1.79160399706420   -1.44693582557687
C          -0.19868276641410   -1.02574003877554   -0.42371629663409
C           1.09023723287072   -1.18447457168349    0.12923558558880
N           2.14246895038334   -1.25059323959865    0.58145917040725
C          -0.93679816988561   -0.00592768647173    0.20986276524160
N          -1.50637065970946    0.82066361889156    0.76686785180926
C          -0.05566115783830   -2.97787744591909   -2.00788150821867
C          -1.03903541809904   -3.72221256715764   -2.72585088707343
C          -0.74003869817798   -4.91184459888503   -3.32649732720276
C           0.57943712098798   -5.41010461902645   -3.24907523614728
C           1.57610382256035   -4.65056248356305   -2.56863824424179
C           1.23634549477771   -3.42957103800938   -1.94437080872951
C           2.89587276172475   -5.14613501054928   -2.52643434384030
C           3.21551635729115   -6.33949675150722   -3.11469434882505
C           2.23002845532763   -7.09556943830413   -3.76787784028431
C           0.94090397178603   -6.63970897978798   -3.83411603358458
C          -2.31547978739915   -2.99113781633737   -2.71914594285554
O          -3.37604348253164   -3.31760795669087   -3.18758656242476
C          -1.99570857189693   -1.67569208068100   -2.06686896387012
C          -2.78844622424252   -0.61361229750758   -2.28899263381215
C          -2.49706037969851    0.78331590506189   -2.03159051040724
C          -1.29308114283606    1.40122044634442   -2.38617454763592
C          -0.09121645102970    0.84569766454549   -3.05000664721778
O           0.11488352365165   -0.26227962156452   -3.47966407556978
N           0.83903452387648    1.88753086623280   -3.10007252433018
C           0.32826103867586    3.08305866737945   -2.58262077074704
O           0.90466148107951    4.13319029312520   -2.52643784859248
C          -1.04903784898721    2.75319678480877   -2.12915286656730
C          -1.97837987857578    3.57441953528433   -1.52135887595318
C          -3.18496371355588    2.97467077381171   -1.17718411999954
C          -3.44060872595340    1.63009375748128   -1.42276493677203
C          -4.74792700287732    1.15779696706210   -0.92365134834201
O          -5.18870593893543    0.04954512585398   -0.96940856978635
S          -5.62689691078912    2.54244737493562   -0.19476188545959
C          -4.28983771690324    3.69929524569098   -0.50801389944608
O          -4.32831005658627    4.85367367368067   -0.21725434488327
C           2.11615390470469    1.65828994753615   -3.59632167785586
C           3.08817429491094    2.57085432954832   -3.72984513760940
C           4.38697015167599    2.24582764355579   -4.22445156705427
C           5.41456249893175    3.12927543466451   -4.48911869973697
C           6.55227920094554    2.48209823836731   -4.98046899470249
C           6.38319512774333    1.09309270109014   -5.07542653740713
S           4.83573282986406    0.58338276698660   -4.57412306474519
C           7.57561753974131    0.52247220649150   -5.59362705155987
C           8.49773747516972    1.55670844445454   -5.83143441296484
C           7.88747583153078    2.82115125244968   -5.45507655073425
C           8.44572358261786    4.06221224065584   -5.53841669196208
C           7.75480742371428    5.22527128858108   -5.13681391850184
N           7.19191631898358    6.17014595227780   -4.81382129717576
C           9.74615224488872    4.26588662697909   -6.04822729461128
N          10.79503089557627    4.43569150019675   -6.47830253029343
C           9.71035696379505    1.08703564745731   -6.33693528956474
C           9.70189540853499   -0.28239242680729   -6.49916167769300
S           8.18030611750581   -1.00541463764452   -6.01348750127018
C          10.75825174269660   -1.12684635410323   -7.00121567476507
C          10.50912105900845   -2.14836403001862   -7.93071842749700
C           9.25764712863797   -2.49538266907889   -8.64127404419084
O           8.19179121388026   -1.94101786534735   -8.64451357374402
N           9.55701162177166   -3.62835530295212   -9.41853663178401
C          10.90685149481165   -3.98358967077539   -9.33574699005877
O          11.44016963925193   -4.89431754746718   -9.90607441525721
C          11.51194024402352   -2.99649111950939   -8.40145231833409
C          12.83156326848047   -2.86361772895121   -8.01341999745136
C          13.09632584166399   -1.84978046774728   -7.09976941158284
C          12.10391124452470   -1.01627228073475   -6.58629017369034
C          12.58355335002207   -0.12097589995811   -5.51144852012533
O          11.94971809648923    0.59785078423224   -4.80025946926786
S          14.36526539874648   -0.31538242031014   -5.33109876445963
C          14.45693211096184   -1.60512433235167   -6.56829122598175
O          15.46367417436566   -2.16116998107247   -6.88216165669540
C           8.54440129033213   -4.28142457481487  -10.09659242193926
C           8.68782001198977   -5.37977839912919  -10.85568846129739
C           7.59434670894979   -6.04702957120210  -11.48773473248533
C           6.31791116226324   -6.15717641405723  -11.02873907441480
C           5.22811131316432   -6.81150738915022  -11.74000072774934
C           5.17055988123530   -7.04375550519492  -13.08757730460026
C           4.07559237450841   -7.65431874848159  -13.73550999532979
N           3.21788521429120   -8.15143183578969  -14.31364198480465
C           6.16720313593149   -6.66962745819423  -14.01484149886159
N           6.92183294821724   -6.37424719425222  -14.82807094955357
C           4.16249027196289   -7.07777281646770  -10.78390955051233
C           4.53511790686679   -6.52094452359983   -9.52779210653525
C           5.86452786496845   -5.89684715146504   -9.63203571978991
O           6.46640321572374   -5.34658969208982   -8.73442366314519
C           3.71289643527583   -6.58054151970698   -8.43894681684389
C           2.45824642161488   -7.21777526323641   -8.55871097456166
C           2.09004050945817   -7.80366587992595   -9.80445223975521
C           2.96045983233839   -7.72214119173522  -10.91526068379861
C           0.84246593161008   -8.45238887598268   -9.90694623127997
C          -0.00519273586203   -8.51229653978711   -8.83460112852625
C           0.35379169747265   -7.92354535646259   -7.61290181706882
C           1.55860323934898   -7.28923328162421   -7.47678926085241
H          -1.50142175199404   -5.46444609390406   -3.85660718001246
H           2.00963593076261   -2.87166675113608   -1.43986256805417
H           3.64919958876123   -4.56602229466803   -2.01436862122450
H           4.22858788652565   -6.71056141847727   -3.07636988256871
H           2.49737793134252   -8.04073000270063   -4.21722467272896
H           0.17749284113639   -7.21776909869096   -4.33357461190003
H          -3.75277470967048   -0.82630373292409   -2.74037762383337
H          -1.78311355888803    4.61421445845214   -1.31345235366096
H           2.26054974883138    0.62089842214556   -3.87349836472663
H           2.92084787179829    3.60421759508518   -3.46595724909824
H           5.32533427044243    4.18917198464670   -4.33444505101961
H          10.54487755423155    1.70937358207597   -6.60230280151248
H          13.61384743958627   -3.50594112006568   -8.38447855425295
H           7.59193719061910   -3.78792956014782   -9.96385942729047
H           9.67294632284075   -5.77737544694981  -11.05299816228431
H           7.84948779950269   -6.56682962349797  -12.40379046057435
H           4.01380497895906   -6.14104389980078   -7.49925059607714
H           2.65370135176076   -8.17481382602812  -11.84469507412910
H           0.56775858280504   -8.89753301640668  -10.85172582713010
H          -0.95889356491962   -9.01035975891030   -8.92294160740419
H          -0.33290197305664   -7.97600494309962   -6.78132548081181
H           1.83936005556412   -6.82952300600087   -6.54015009505920
