102
 SCF done       -183.628218000995          0.000827321586
C          -0.42495406185414    4.73351236865350   -9.54089043109251
C          -0.94890706441831    4.32583926151634  -10.74238955551671
C          -0.19441645377328    3.74547014718316  -11.78200003993353
N           0.35966080576784    3.27051435371082  -12.66888796460263
C          -2.30570174434618    4.42869802977596  -11.10900177640692
N          -3.39530589943642    4.47931443881684  -11.46992195126261
C           0.97753206883305    4.63166276377860   -9.14789178401209
C           1.12786864248117    5.16485604982403   -7.83500314472806
C           2.33823573533915    5.19885941819987   -7.20600388031276
C           3.47710426296405    4.69104792263611   -7.87141778265668
C           3.33516057295857    4.15634127261911   -9.18391840870929
C           2.06815346937156    4.13509609502496   -9.81118077612508
C           4.47687792934976    3.65172522756204   -9.83888796774386
C           5.70112135559149    3.67291871283289   -9.22802743621047
C           5.83983263993160    4.19954037965409   -7.93536353130876
C           4.75150673053487    4.69789819518753   -7.27168098097209
C          -0.18345467189913    5.62718598915325   -7.34346701704404
O          -0.43099540443193    6.13680347326980   -6.27051132197955
C          -1.14040022758183    5.33809025998003   -8.43954868568335
C          -2.47456330613133    5.62346419406277   -8.34856353650208
C          -3.03802212035873    6.20497543115837   -7.23616520450149
C          -3.56149268020963    6.72319970852268   -6.26412006453651
C          -4.10750694460620    7.30921439603374   -5.14737229329458
S          -5.81496684960900    7.66394649859089   -5.03695985593631
C          -5.59333087157826    8.32983099247581   -3.44054807376870
C          -4.26376989907965    8.26629389510358   -3.04428262218536
C          -3.43475787584286    7.69547736523597   -3.99715327581819
C          -6.65939483038902    8.83564020655336   -2.72940827630073
C          -7.62632767740986    9.27639403164056   -2.13119540287784
C          -8.70780091272272    9.77831892607350   -1.43995771861893
C          -8.61192352696535   10.34860484988587   -0.20073218598839
C          -9.71212481616742   10.85549488697708    0.50137280539907
C          -9.64009416851016   11.44301187315258    1.74274055684713
C         -10.71307598854101   11.97191645277035    2.49801219048021
C         -10.34630298965330   12.50341370157958    3.69833572430331
C          -8.96099802846389   12.42579416733201    3.95824511769606
S          -8.13639918058333   11.64684171329274    2.62682096512090
C          -8.27427446847442   12.88445930866419    5.06767806967320
C          -8.79843765882061   13.53879623353779    6.20479694722929
C          -7.85678285911563   13.89117430835149    7.12429400782013
C          -6.53624077696744   13.53311116359809    6.76209387210250
S          -6.53687089579513   12.71731763306045    5.20678064543311
C          -5.37701005868608   13.77369285990072    7.45789667440757
C          -4.15056213939670   13.37967243681767    6.97997789551451
C          -3.11211124635707   12.99601797049739    6.46631365705772
C          -1.94969889485972   12.56758987567762    5.86891452192287
S          -0.37361738755739   12.99597419768060    6.48011119813687
C           0.39208702796947   12.10193663813205    5.18911026597993
C          -0.54793323496719   11.51165466897769    4.35710090073901
C          -1.85569008219447   11.77438862985558    4.73272508323158
C           1.76204686113549   12.05329270137547    5.05886530650903
C           2.97483154227599   12.03134507280586    4.93786022941673
C           4.33945400784496   11.98097269655531    4.74533817574966
C           5.23668031697299   12.71129783098329    5.46748791634756
C           6.61806659246047   12.62952178919149    5.20278977382996
C           7.59072593608991   13.35500081560011    5.83804041797432
C           9.01517840410472   13.29824035288088    5.58248846518486
C           9.66776804651872   12.47235254780989    4.70032834344913
C          11.06445826877940   12.46399326862677    4.50809709533008
N          12.19203835788329   12.40139562389805    4.29810998046549
C           9.06231750414300   11.51221131382401    3.86506545188198
N           8.65335663205315   10.70677381541716    3.15464361865256
C           9.66226123914917   14.28012777457279    6.44767216782755
C           8.66458860407881   14.91706047337916    7.23867666997859
C           7.34136493974821   14.36273532474924    6.89766774130930
O           6.27794965762167   14.68080559226914    7.39065245226814
C           8.97302333235981   15.88819376897222    8.14611361828853
C          10.32182617938650   16.27781580065299    8.30735303497845
C          11.32635826816529   15.64743588543375    7.51867823977963
C          10.97560130975914   14.64296849545907    6.58725156225768
C          12.66870360795054   16.04430294982198    7.68526588596970
C          13.00466665783410   17.01678971117971    8.58729205685888
C          12.01451211644438   17.63678951270362    9.36367386479114
C          10.70171072876059   17.27506861258556    9.22659701009470
H           2.42675676997860    5.60775823703050   -6.21031866622174
H           1.99432304320426    3.72327647469998  -10.80516837224876
H           4.36462983129259    3.24728610235032  -10.83425650548175
H           6.56970077396675    3.28362023726151   -9.73788852784973
H           6.81318244454458    4.20848287874331   -7.46788362787936
H           4.85259826537990    5.10478793473951   -6.27605149926843
H          -3.14948229041070    5.39594652820571   -9.16363139614722
H          -3.93473674208418    8.62989219729738   -2.08714594022053
H          -2.37448131513734    7.55158175493235   -3.89067387985767
H          -9.67275000088190    9.70324992950494   -1.92680529288391
H          -7.63919623046853   10.41764135833393    0.26993287297656
H         -10.69098517971882   10.78697454898636    0.04383998327175
H         -11.72335894326964   11.94402845656408    2.12924328770552
H         -11.03167331631495   12.94840327622024    4.39706628217951
H          -9.85027100241291   13.73427602656144    6.31278562456464
H          -8.06703713206880   14.39923299458621    8.04908673037984
H          -5.42346051053674   14.29913218046440    8.40166457519237
H          -0.26566196968246   10.91869960746090    3.50540282306105
H          -2.72697632317697   11.41344418621534    4.21605063617641
H           4.69000637103126   11.32199671219738    3.95778972929609
H           4.89270662895856   13.37388967106806    6.24756964369485
H           6.91579974121198   11.94035585457899    4.42218731926757
H           8.19633005289660   16.35543430379101    8.73340250829635
H          11.76065157422702   14.18720950837850    6.00528443788405
H          13.42741852094322   15.56360700118201    7.08507603147248
H          14.03586190240040   17.31375868719907    8.70750150000513
H          12.29706031387753   18.40244197912589   10.07085848174129
H           9.93470226764417   17.74911606711365    9.82170400933862
