102
 SCF done       -185.080827493268          0.000714419387
C          -5.35437087906339    0.80488149801249   -3.06724762488026
C          -5.34900250279981    1.20191675404121   -1.74976510225116
C          -6.37384455113417    0.91021756055284   -0.83204966586408
N          -7.19988305714745    0.74481504872874   -0.05032185103645
C          -4.28296666369193    1.90119645830789   -1.15878408504005
N          -3.41998038737072    2.46119464647203   -0.64716785921956
C          -6.26803665791845   -0.18115336404009   -3.64145809786252
C          -5.72158682843420   -0.63533821529541   -4.87649717046306
C          -6.33440509615128   -1.59863651796772   -5.62276673245405
C          -7.54966188966981   -2.15756304059350   -5.16378692680585
C          -8.10805181593238   -1.69923190726008   -3.93676022348622
C          -7.44598169225154   -0.70194621568197   -3.18163756486414
C          -9.31929043882907   -2.26384393956077   -3.48997651324676
C          -9.94893553136152   -3.23786776837263   -4.21657839911079
C          -9.39803767383400   -3.68898583590724   -5.42456779143352
C          -8.22396879554483   -3.15963583288726   -5.88809146322948
C          -4.46877379610995    0.09531783325614   -5.14608938263698
O          -3.70938631917123   -0.05034439345133   -6.07951640050895
C          -4.34844278749166    1.09247043088847   -4.04937939056043
C          -3.40296647745419    2.07896399394206   -4.17555940819871
C          -3.27153257308708    3.32734620074257   -3.55543011709244
C          -4.21199631975839    4.13380834350528   -2.88571261564257
O          -5.47814704449634    3.69519125789519   -2.78172763110975
C          -6.39866827018431    4.40937812989437   -1.97662672190773
C          -3.67437608682640    5.35641740002622   -2.44978466971086
O          -4.41561405213911    6.35918985818957   -1.86947424920365
C          -4.65913726499471    7.46525666868070   -2.72058515750195
C          -2.30720545358118    5.49388812136012   -2.72190175054256
S          -1.74012788395600    4.15164438243986   -3.66837875719746
C          -1.38271549586570    6.47138690259466   -2.32322430257397
C          -1.47343290331844    7.38285043052863   -1.29441346440379
C          -0.41979364686915    8.26101170735574   -0.93069282217864
C          -0.66505482938003    9.00171574495556    0.18515827341667
C          -1.93104591528240    8.75311733726862    0.75608734180252
S          -2.80549075367267    7.55819491191964   -0.17394665497587
C          -2.47297138965895    9.33794525405606    1.88991986344378
C          -1.84545335263659   10.23090877466432    2.78447257636161
C          -2.62918964031158   10.61603148702833    3.83288600736440
C          -3.92763696898658   10.05871126070520    3.81303881264674
S          -4.10563076363523    9.01370628303647    2.41275022929989
C          -4.99302488225940   10.22541893655826    4.67246920485085
C          -5.03225536775390   10.95752076158525    5.85996537060885
C          -6.21154210592505   11.10838979942256    6.62920150622628
O          -7.34047647118567   10.52771954899048    6.17286617719970
C          -8.54177597796587   10.68343339632162    6.90074456510926
C          -6.00089847151302   11.86026010655242    7.78257444627702
O          -6.96591502132794   12.13856854900213    8.70859127114762
C          -7.32573175189144   13.50658737651692    8.87995153035868
C          -4.65029460651558   12.25930777077561    7.95571209239962
S          -3.68124851490839   11.76180997178620    6.60027588318137
C          -4.20236692563476   12.88113683041952    9.12138579701246
C          -2.93190351947729   13.27370199246532    9.48597973733397
C          -2.56486922328954   13.85687808968583   10.75580487708391
C          -3.40677168066604   14.27785944509899   11.75857479304143
C          -2.96718753122577   14.84355722784786   12.97217136485105
N          -2.68201346803999   15.30881751324902   13.98302841779942
C          -4.81329890140536   14.25068408482311   11.72000390026841
N          -5.96191705728114   14.29029345612497   11.76443630562829
C          -1.10861607584613   13.97379162006357   10.78262004248380
C          -0.59908998064179   13.53741405148683    9.52624722007653
C          -1.72264340167354   13.11164239255175    8.67675955838588
O          -1.64574995524268   12.70868709721396    7.52584833001071
C           0.73618381274173   13.53443597735601    9.24810240976065
C           1.64614756733693   13.97102807208623   10.23822557343841
C           1.14638057583609   14.40493876638055   11.49888272044924
C          -0.24561026072953   14.40086236142870   11.75485703617608
C           2.06169629426218   14.83490390177924   12.47996364184551
C           3.40753356227530   14.83718165287938   12.22992545548780
C           3.89856517215737   14.40956392231078   10.98820658500115
C           3.03606811525758   13.98567727495549   10.01325551207298
H          -5.89724262592608   -1.93544902988035   -6.55108267617609
H          -7.89390017477918   -0.37236680735850   -2.25711899770185
H          -9.73863457748988   -1.91508405606525   -2.55745722609744
H         -10.87494725475996   -3.66656227085900   -3.86321053384231
H          -9.90746559143495   -4.45819349782886   -5.98578984521735
H          -7.79433478117028   -3.50352091831670   -6.81777956197351
H          -2.65221145278446    1.86727265639409   -4.93328025801448
H          -7.25845455238077    3.74911119875504   -1.86531915377452
H          -6.71421132717070    5.33658968163946   -2.45987725175093
H          -5.97498588403879    4.63528147437355   -0.99662610597677
H          -5.21582678887536    8.18292725649325   -2.12181351368781
H          -5.25329398437542    7.16780970126182   -3.59149969220282
H          -3.72743829943387    7.92176884070746   -3.06638098705476
H          -0.42824637078486    6.43548194853617   -2.83381755702639
H           0.48907306961908    8.30645491966608   -1.50427358947823
H           0.02252890100566    9.71656519823988    0.59951124118531
H          -0.83169333031567   10.55879317980864    2.64199082142236
H          -2.30550577706644   11.28617254379653    4.60774750213512
H          -5.91850683274746    9.72711059041197    4.41406687404572
H          -8.42722308010678   10.36346300867017    7.93765797493185
H          -9.26845214295923   10.05047870726155    6.39357667847827
H          -8.88682391708906   11.72059558920748    6.87828076331947
H          -8.28636859888398   13.68728430943211    8.38616612567518
H          -6.57742220796794   14.17983449337130    8.45923595050112
H          -7.42479068503216   13.69726628517892    9.94877099846031
H          -4.97850487591538   13.01746326648065    9.86389652862971
H           1.09631171308876   13.19827427550533    8.28703202490702
H          -0.58982567700858   14.73293428087520   12.72119223485491
H           1.67866807650116   15.16351461236656   13.43500269086426
H           4.10061796159282   15.16829054634412   12.98882385647783
H           4.96315834282936   14.41704384842624   10.80729440214210
H           3.40858321995592   13.65464457448450    9.05469641060948
