117
 SCF done       -188.858276622378          0.000771596401
C          -2.46629031682643    9.88658651342184    0.29239763954817
C          -2.16547433043080   10.55777707925976   -0.86233234228371
C          -2.99896367737286   11.54361914793031   -1.43008148674562
N          -3.64611204777569   12.33924518301420   -1.94576448276959
C          -0.94042695750804   10.46027653736526   -1.55102393450938
N           0.05699102677587   10.49711227984428   -2.11834593564770
C          -3.54930943450228   10.25860451853992    1.20024327426749
C          -3.22520970570686    9.78146439509460    2.50363448934816
C          -4.02574382186907   10.03340595889357    3.58010237745454
C          -5.21573466053168   10.77247453917808    3.39523785017394
C          -5.55815158560714   11.22981982195071    2.09009418628985
C          -4.70369046444386   10.96305825427205    0.99510206697353
C          -6.75333550078594   11.95663434319599    1.91770995793559
C          -7.56989213659990   12.22480810798180    2.98240210981688
C          -7.23056887856591   11.77656464964065    4.26762286713093
C          -6.07880729614017   11.06583887744317    4.46939865731042
C          -1.97602633817378    9.00626237520657    2.43553117847646
O          -1.36777781041407    8.49193868107336    3.34964609068397
C          -1.64308750811172    8.91895603871922    0.98737765264146
C          -0.82839717074904    7.90215973696791    0.59271924333272
C          -0.61791110623692    7.28585275979331   -0.65914002798304
S          -1.50966908802955    7.66957803502225   -2.11256663991394
C          -0.69058455979185    6.44971952847813   -2.98184966195420
C           0.21510231607737    5.76370671348392   -2.22190335472232
C           0.24671280877300    6.22046451633531   -0.88907039772962
C           1.09070797803645    5.55295806157823    0.14411041738549
C           2.28031846813217    4.83609220467997   -0.49319398198043
C           1.76145659075816    3.90185031765112   -1.59632157010244
C           1.10987191079303    4.68068660099444   -2.73597491799370
C           3.34317495528836    5.78055386522303   -1.02454580339357
C           4.58245168552509    5.33849519597155   -1.21431825471545
C           3.03120610243699    7.18225352987302   -1.32152064119934
S           2.61738336353293    8.28925396852759   -0.03416739382871
C           2.61861356187445    9.61902273191249   -1.11692770243958
C           2.91262935378221    9.25070099676203   -2.38965450218503
C           3.15728519401669    7.85443637306933   -2.50489442488946
C           3.49244291704125    7.26886801075714   -3.83785719194065
C           4.32317198367562    8.28911070828490   -4.63213871685904
C           3.45288069727985    9.53228483938582   -4.84034796087747
C           3.03056956771391   10.20843553039518   -3.53188855121426
C           5.65127946488695    8.54013146889898   -3.94203986957838
C           6.45679151282698    7.53864460006925   -3.60210507222446
C           6.12488793479634    9.90651448954325   -3.70331834464774
S           6.56085937874088   10.92147747844868   -5.05101917107684
C           7.17991742913557   12.12554366162692   -3.99005749352645
C           7.05935142071850   11.77503597859108   -2.68418086509486
C           6.44565093833798   10.50319485289794   -2.51755075017572
C           6.10623748261928    9.96773858715780   -1.16268845769908
C           6.99152140784712   10.58359313931084   -0.06903288470118
C           6.96426372656245   12.10638885982822   -0.20358198488404
C           7.58958302579410   12.55570599066932   -1.52360791343817
C           6.52266536021580   10.08176894760865    1.28421446468002
C           6.29543660690926   10.85889489065692    2.34349115307858
C           6.41967784528802    8.63725042934740    1.36167361852358
C           5.47329502508674    7.89819689260973    1.98694493201631
C           5.41882897635252    6.43990525771973    1.98955038744099
C           6.38756260641986    5.58117550182304    1.54365968849653
C           6.25785923203711    4.17627845572609    1.53992445444778
N           6.21592880273413    3.02950852986197    1.49297775281568
C           7.64018226745822    5.94430312301840    1.00548369042255
N           8.68220853595690    6.13489190482924    0.56062889803818
C           4.13569443217257    6.04049610628367    2.54724927218490
C           3.39952158313262    7.20972623129056    2.88717889103514
C           4.21305018559284    8.40817819325758    2.60907659321853
O           3.89775425932336    9.55288927056400    2.83857926161770
C           2.13188829520204    7.14474903418871    3.39136221543419
C           1.53371924448624    5.87913341637256    3.58716447674581
C           2.27573258661038    4.70202410698420    3.27974299285407
C           3.58538275017954    4.80260385786911    2.76004735157365
C           1.66922114317856    3.44522687437190    3.48260756442111
C           0.38842642138767    3.35541771610879    3.95538779575256
C          -0.34454131932387    4.51650540310438    4.24517678199831
C           0.21556842257544    5.75309163433473    4.06898135038955
H          -3.75611650778860    9.67403082952674    4.56221522964225
H          -4.99084767923466   11.31412431695800    0.01628812494582
H          -7.00814281492300   12.30330268614797    0.92695514564590
H          -8.48177184302421   12.78520677672057    2.84023871082781
H          -7.88624830101740   11.99721549416155    5.09665503433598
H          -5.81222011288272   10.71799189237584    5.45683786335464
H          -0.32384667967057    7.40976083330249    1.41943106395525
H          -0.92551774411277    6.29846337633378   -4.01751649006490
H           0.47597504819762    4.81124675933627    0.66781797148179
H           1.43979819052861    6.26468887012645    0.89037190251417
H           2.75162684107392    4.21260097244420    0.27429352064891
H           1.03161692691786    3.22121654031799   -1.15186348691978
H           2.58299391385461    3.30312819239224   -1.99145559580856
H           0.54437991381702    4.00407575474996   -3.38090436549318
H           1.88956632877665    5.13965804433173   -3.34795964014479
H           4.85807690851521    4.31704221496330   -1.00911821138037
H           5.36338649411653    5.98429374151348   -1.57882611099709
H           2.39199517631857   10.59518424263762   -0.73784535236008
H           2.56648970453609    7.07708504849255   -4.39170269245082
H           4.01867724374410    6.32186868641552   -3.72262483131148
H           4.54175248147330    7.86253619937699   -5.61965263923254
H           2.56044613418650    9.21386340989912   -5.38476645536251
H           3.97300764597492   10.25495928747358   -5.47018489461759
H           2.07008268080127   10.70993219490179   -3.66817582584905
H           3.75528577904540   10.97941879841424   -3.25775953714165
H           6.20937556040691    6.50829285276842   -3.79141361247865
H           7.41367394633964    7.71795716387253   -3.14154543150678
H           7.60515025379677   13.01870451049736   -4.40267621649642
H           6.17729676118609    8.87831364583396   -1.16509949798468
H           5.06310441541943   10.21833677896816   -0.93960980491372
H           8.02258969952472   10.23458246457593   -0.21551816846293
H           7.52314707930298   12.56862116930998    0.61119826100235
H           5.92830221673635   12.44775567635375   -0.14985017780358
H           8.67394125671919   12.40530577052647   -1.47663473749480
H           7.41815060278534   13.62358617381900   -1.67657584118732
H           6.38985430162551   11.92871132249387    2.30824549788585
H           6.02753467935466   10.44228384619409    3.29708924862827
H           7.17826814074575    8.10764249834738    0.79687876846060
H           1.58274645468286    8.04397058833550    3.62765069268132
H           4.12084184013440    3.89314504144536    2.53820693264502
H           2.23619009237288    2.55437723244896    3.25365019611430
H          -0.06806056470688    2.38816291124766    4.10568902448028
H          -1.35680594334258    4.42629039899587    4.61018404418119
H          -0.34472959433916    6.65145837825100    4.27818142320260
