115
 SCF done       -226.302097543667          0.000653277903
O           1.41858323432470   -3.48642767924295  -10.70215265336445
N           1.02106792583840   -2.21469575938219  -10.75817560148280
C           2.00483418050774   -1.46280040313011  -10.32321044537028
C           1.92060995970485   -0.05543119570201  -10.24515104600093
N           1.87844044802327    1.08483401193322  -10.16999119856771
C           3.12328207604303   -2.27264130761427   -9.95590715007904
C           2.67091136979824   -3.55217909735135  -10.22533058389353
C           3.31745029723454   -4.79419213284170  -10.07038346883429
N           3.83970831660950   -5.80445420263039   -9.94667094845479
C           4.43907854423832   -1.87242205052486   -9.41151229873146
O           5.29045443761961   -2.67118332749260   -9.11451121884056
O           4.48304424238582   -0.54774306518790   -9.31995216093831
C           5.54164276554571    0.19934957585357   -8.81626762236971
C           6.73990331674032   -0.33389874561698   -8.35326042440678
C           7.68152433436229    0.54299298806052   -7.85927562151293
C           7.44349297675352    1.92574932496371   -7.82750722994277
C           6.24820063498732    2.44385501958687   -8.30620639938765
C           5.29754177343202    1.57271385493256   -8.80001522159066
C           8.59330145319974    2.57462796426528   -7.22925052102868
C           9.53625118948605    1.58848447060424   -6.89338259095357
C           9.03943714726321    0.21766689858879   -7.28675328718764
C           9.95255238885745   -0.42766438936654   -8.34687740841089
C          10.11918793259753    0.43625532935028   -9.59117996879677
C           8.92663219361043   -0.71593070833390   -6.06720379756404
C           8.04223566483422   -0.14547062049532   -4.96505641485296
C          10.71336024258001    1.93140107036930   -6.27649939069365
C          10.97482034143454    3.27578105000450   -5.96683348206879
C          10.03242264113600    4.24860342679773   -6.32657924011427
C           8.85045102667784    3.91007503256812   -6.95399222419728
C          12.19141433099051    3.58158150264838   -5.25442177017312
C          12.57167751931117    4.77302400091528   -4.75649738716850
C          13.75102798087984    4.95838589079700   -3.97475217492623
C          14.15929448623251    6.10931547270184   -3.36276745057901
C          15.32557138239379    5.96291120031411   -2.57364048073332
C          15.99939752328629    6.94422972857503   -1.81878870396582
C          15.54907857412583    8.31827068676351   -1.72411187433965
C          16.32123032758455    9.44382561835243   -1.68596363283917
C          15.56322586818615   10.62381168381825   -1.52326321587002
C          14.21817337385766   10.42154391694581   -1.42001045452930
S          13.86483916361727    8.73106025397772   -1.54102604780568
C          13.13567225539411   11.42066181573327   -1.23683220429654
Cl         16.29370988488697   12.18146960124150   -1.46057217819431
C          17.12880890999851    6.52355438992057   -1.12368166518095
C          17.62222190345987    5.19654387023668   -1.16317811584710
C          16.97618057145185    4.22514676465860   -1.95531461551440
C          15.82631930698197    4.63685602929414   -2.62008008225361
S          14.83207997651213    3.62350329715478   -3.62591798617580
C          17.47844457785023    2.87296041841036   -2.08381305815491
C          16.76853575720056    1.70989814583946   -2.16982820448516
C          17.59222582245130    0.57935694859951   -2.35995900757570
C          18.92628126166291    0.85495617934058   -2.43354712788402
S          19.18662816059083    2.55682609056091   -2.25303491369349
C          20.06272701010549   -0.07854626099163   -2.63517236590153
Cl         16.94754979344625   -1.01256809006119   -2.48861742173200
C          18.70729869194312    5.01136114858110   -0.27574958705723
C          19.04814987819932    6.13771247307635    0.41802127724028
S          18.05464786566929    7.51065998324286   -0.02388760640371
C          20.03832996385407    6.26168208761363    1.43016159687794
C          20.34155671856919    7.38026183676742    2.18156041121700
C          21.32820145583408    7.11641315626876    3.13375895941221
C          21.77725605861555    5.78960935203243    3.09932131762591
S          20.99574016643638    4.86574126005504    1.89445072701788
C          22.74702226468764    5.61427088674528    4.12349336678101
C          22.90886816763245    6.82861645816150    4.80224539260000
C          22.03305893590693    7.81862154627379    4.20045211033306
C          21.89243470574179    9.12869414038935    4.54978715536333
C          20.99679000855280    9.99058451157391    3.88051975912978
N          20.27025798003897   10.69546880715527    3.34229027788412
C          22.63030853540586    9.72248451684276    5.59682836222357
N          23.22349342046555   10.22366591095991    6.43975468284965
C          23.83284242389934    6.75166769629491    5.86019342878925
C          24.34466084781888    5.48828173001107    5.95438751002090
S          23.72346985822364    4.36399662470378    4.76187291291376
O          25.24751393734683    4.93496333600968    6.81251460348871
C          25.73356748448666    5.59030600570551    7.88660181364953
O          25.46709945660329    6.71469717662592    8.21031563794313
C          26.64988947024129    4.69963124930733    8.61241352128338
C          27.37210476886341    4.97862700588018    9.81408738269305
N          28.08266540841675    3.93424044204629   10.16813963455016
O          27.87794450067195    2.96897426121581    9.27119170965001
C          27.02535922504635    3.39609928183699    8.32872698815068
C          26.64153849069418    2.56007763071701    7.26317602381958
N          26.31501811098768    1.89741723699559    6.38885445290944
C          27.35965757705072    6.18121063021988   10.55630703037141
N          27.34816665207881    7.15324393761825   11.15690764647157
H           6.92120183348835   -1.39549511875557   -8.37341700793705
H           6.05623272917493    3.50532009711582   -8.29040687667352
H           4.35030803476204    1.92739846032290   -9.17531631695182
H           9.52969470192848   -1.39358478499751   -8.62949835581134
H          10.93148150051726   -0.60857877571316   -7.89840570383925
H           9.15852567889313    0.61020934163332  -10.07094064516488
H          10.77462344871199   -0.05900307005286  -10.30366713048897
H          10.55402670404320    1.40020422256819   -9.33574052695209
H           9.92824862131301   -0.89494473725623   -5.67135106841662
H           8.52189295477103   -1.67433259826621   -6.39761379158526
H           8.43689793159808    0.80257925585639   -4.60603115743136
H           7.99582167348003   -0.83827287039615   -4.12818304735192
H           7.03117700631019    0.02088537643200   -5.33017389428273
H          11.43884414881978    1.17621005823569   -6.00974701779145
H          10.23082375777012    5.28598652091679   -6.10643320241466
H           8.13454816793257    4.67391198015234   -7.21823809085311
H          12.84312102150977    2.73400041053284   -5.07384826678624
H          11.96967152554444    5.66052354457851   -4.89135790193729
H          13.62867328738035    7.03667545430298   -3.47306131925276
H          17.38871612569598    9.44805335318492   -1.80431597103146
H          13.56757619850464   12.41488614332576   -1.15594004383168
H          12.56472739611806   11.20718143021645   -0.33380129810637
H          12.44695173061813   11.40170818286640   -2.08120888794746
H          15.70175126068721    1.64397407878008   -2.06684198056428
H          19.69498150171068   -1.10112401603308   -2.66557982359896
H          20.78609650586619    0.01567905321030   -1.82618648907500
H          20.57685848404975    0.13910478236158   -3.57120539815246
H          19.20368477714151    4.07067084026207   -0.12152988263594
H          19.85110878803058    8.32573563214222    2.03524517713164
H          24.10434069630640    7.55833094274591    6.51643917958547
