114
 SCF done       -246.474490486389          0.000953524426
O          14.17355205933509   -0.22067162566906   -3.09738386849018
N          15.06146810844469    0.77159258210255   -3.02153037046939
C          14.45924540881331    1.81912898111420   -2.51065588770917
C          15.11839106785827    3.04902827286125   -2.28754804112589
N          15.64848612942001    4.04489176144457   -2.10579688509663
C          13.09246790626123    1.51281567063682   -2.22626132501176
C          12.98721092982147    0.19169942646978   -2.62945164534715
C          11.87847336893157   -0.67658460952161   -2.60275411292623
N          10.96815903774179   -1.36938115613954   -2.57737523222772
C          12.07705107207039    2.40449823464169   -1.64565710835108
O          12.26701901324961    3.55469989854580   -1.35787629100279
O          10.92591691885757    1.72408504823359   -1.49751323218785
C           9.80087946974045    2.28733592983060   -0.96799925433112
C           9.54808483013304    3.54029341170591   -0.52559472761104
C           8.21878178964767    3.67514921301746   -0.03339096508957
C           7.61363988919537    4.83776818835651    0.47881520166520
C           8.30453300171179    6.11156926520917    0.47185314465136
C           9.06940656032141    6.64885642417247   -0.52369867300513
C           9.58746943821666    7.91829127252780   -0.18738705343247
C           9.23772010187770    8.35842440329280    1.05658746575524
S           8.23134807830294    7.18864513261627    1.83974714548645
C           9.60392134204768    9.62766858285796    1.73277482982652
Cl         10.57501572933532    8.82188501307215   -1.26972464001321
C           6.32381423512327    4.69318378034913    0.97896646582922
C           5.60602829219883    3.47243275608045    0.94030295716168
C           6.18573976135797    2.32715156756145    0.35674106222787
C           7.49750225390350    2.45945852517834   -0.09099496181909
S           8.45486039720267    1.18741702009978   -0.81227382421146
C           5.45748091494375    1.08674364460445    0.18964612868849
C           5.92782098356892   -0.19200865478271    0.28274467808255
C           4.94899375662437   -1.15951052203020   -0.03128548848927
C           3.73394330229813   -0.64404514460736   -0.37805921987615
S           3.78386946326569    1.08417545812265   -0.30443962561276
C           2.49837935232153   -1.36105898053618   -0.78154096302980
Cl          5.27851691791144   -2.84782823040007    0.02136175543836
C           4.33735956248970    3.59124052897544    1.55696745482495
C           4.06584898406707    4.85004168814322    2.01042093468050
S           5.37766451771425    5.96577718648520    1.69631515674778
C           2.90962190226406    5.29638820360848    2.70913926429983
C           2.57412323483459    6.59341561011499    3.03682308218350
C           1.38487953150300    6.65696427532108    3.76737728650572
C           0.82340822836891    5.39347412491167    4.00431089914420
S           1.73806458899750    4.13193099514653    3.30703105963525
C          -0.34849670486780    5.55863051767243    4.79036218010989
C          -0.53400465066627    6.92742674713173    5.03521167232129
C           0.54265581006582    7.66551914382268    4.39242519619648
C           0.72441337519089    9.01667499720915    4.37953828161144
C           1.81748854564675    9.62204030702071    3.72368539684234
N           2.70387251654363   10.12011056904534    3.19371204259123
C          -0.16969239102576    9.90181629425251    5.01874926761480
N          -0.89266985384837   10.62672603931251    5.53480854293559
C          -1.64800414636454    7.18915643381964    5.83679014710375
C          -2.29653189432598    6.03106582808519    6.21213402020677
S          -1.53507487706708    4.59361785862570    5.54859301402162
C          -3.42759106582995    5.90731639111408    7.06569383234430
C          -3.96968593571140    4.75915790041502    7.56764284110191
C          -5.06443962457304    4.98107571239332    8.43663654004717
C          -5.82981956821232    4.02206288184430    9.13131025054606
C          -5.63583204464260    2.59729563270254    8.95713962336290
C          -5.71192176480545    1.61454764034443    9.90247765399669
C          -5.52525434684502    0.32249638286448    9.36535376524523
C          -5.31944041962628    0.29433963046722    8.01664514916257
S          -5.34458416365059    1.90445222429798    7.38269890699021
C          -5.10067825934845   -0.87717016152792    7.13168109338563
Cl         -5.55586214307478   -1.09139829522268   10.34608100685396
C          -6.80209960057044    4.51737684168334    9.99583548333585
C          -7.07580717102104    5.89694422789620   10.14814200988009
C          -6.35292110686608    6.85233926691136    9.40925368639021
C          -5.33464244935414    6.36263753872547    8.59738664309054
S          -4.25867576713656    7.33776663686978    7.63729899193778
C          -6.67755607070849    8.26232010078407    9.48420802223280
C          -7.91711205361992    8.83607261029924    9.51189594878116
C          -7.86358698104688   10.24517153466842    9.57021931625097
C          -6.59958897842470   10.76078722694448    9.59421569591023
S          -5.43471746214108    9.48265021296331    9.53484636519000
C          -6.17652511095917   12.18143692506813    9.66541840821270
Cl         -9.28387510098400   11.21723529119347    9.60286896779372
C          -8.09824725827112    6.14265104351640   11.10819125003337
C          -8.59268322906293    4.99627150983178   11.62871500113471
S          -7.85423190337858    3.54631901556841   10.99836699621609
O          -9.54755983137104    4.77272988596966   12.57828433893730
C         -10.27399810308184    5.76526094122680   13.12359758197453
O         -10.20185506171994    6.93275737250557   12.85236622865903
C         -11.19080060624628    5.19731299406013   14.12367703445818
C         -12.16459154192157    5.89125618966546   14.90653271530009
N         -12.79098020780344    5.05284918514820   15.69762549479407
O         -12.29101059672001    3.83419891390265   15.48901324850394
C         -11.33279612342920    3.88801275652567   14.55346908812529
C         -10.64168115987158    2.72645192709964   14.15729170245811
N         -10.07020499504248    1.79247830928057   13.82528971493066
C         -12.45335004009772    7.27424399373937   14.87485742757758
N         -12.68802094682516    8.39235928584209   14.84310999337125
H          10.27318560237588    4.33158083758193   -0.51881750720791
H           9.22749157367008    6.18617032821437   -1.48009617807158
H          10.21982928317034   10.23094746791958    1.07077439852221
H          10.15904040953467    9.42827706787557    2.64887729296377
H           8.71004670647789   10.19069026582035    1.99869832386897
H           6.92160766892504   -0.44988720261585    0.59679100780014
H           2.27454622549637   -1.17631014063563   -1.83237176172904
H           1.64697250287968   -1.02257766269138   -0.19317919381543
H           2.63213760567114   -2.42993412479577   -0.63544611163102
H           3.64981189931743    2.77445236508313    1.67935552082902
H           3.17762335735150    7.43674383449776    2.75306820139703
H          -1.97460458861809    8.16372930713332    6.15228087598794
H          -3.57198284801909    3.78769307914045    7.33800183025868
H          -5.85742275689555    1.79379288407620   10.95105681708777
H          -4.99223473393761   -1.77490789101008    7.73504671324441
H          -4.20464837541167   -0.74111094941520    6.52799458997205
H          -5.94456284114846   -1.00939865812368    6.45445553625048
H          -8.83845743137184    8.28763719205346    9.44808396899781
H          -7.03845098111215   12.82770523317845    9.51930191347469
H          -5.43160766261862   12.39745723720057    8.90154873392955
H          -5.73469558423419   12.40214938272515   10.63728915389729
H          -8.41823339739469    7.12267457859827   11.40653551791239
