78
 SCF done       -176.228512122255          0.000760035305
O          -0.98608092753886   -1.49000496398874    2.21920989694670
N          -0.12041726489671   -1.44258389903648    3.23255824558802
C           1.02439104416422   -1.00153827377821    2.76836023371662
C           2.16575824013061   -0.82706636756171    3.58172141590705
N           3.10380635806350   -0.67357037815123    4.21735050401160
C           0.92278169019818   -0.73653177933232    1.36675897771407
C          -0.39300412262957   -1.07323406341480    1.09035198172601
C          -1.10808102387785   -1.03904034610318   -0.12231175003077
N          -1.69806049648405   -1.01661769631081   -1.10221953804923
C           1.93878804454957   -0.23349909416262    0.43346783276035
O           1.74166309344770    0.01065897069279   -0.72628832356839
O           3.10866700749839   -0.09594434842453    1.08799880691577
C           4.24563097666719    0.35194838467074    0.49024006724164
C           4.47993181715192    0.85590628827536   -0.75829334045388
C           5.83733554608710    1.18940580683966   -0.90878403614679
C           6.60063938338492    0.92380049260102    0.24405274014667
S           5.66399943118699    0.26919877411569    1.51993060071657
C           7.94283565675644    1.28154841111486   -0.00448171309431
C           8.03463884246194    1.77703424069936   -1.32174221125114
C           6.70147404032504    1.75609602210246   -1.92092741974327
C           6.34869782078356    2.22003863809505   -3.15534179028265
C           5.01900708127172    2.16697704086415   -3.62927699724604
N           3.94329621776564    2.14296591334715   -4.02402505063273
C           7.25581115670009    2.84196189125154   -4.03751357233495
N           7.95380644101033    3.38565065887035   -4.76792363424691
C           9.32108327135217    2.12683349435788   -1.69031377966579
C          10.24420166577474    1.91639187509191   -0.66089491256919
S           9.45701111940044    1.27897982072596    0.78714165296597
C          11.62868593627961    2.12351166389501   -0.62508605816204
C          12.44975688551867    2.47120907012926   -1.67574929042627
C          13.84810065335993    2.68289424848953   -1.60532123579387
C          14.43568743589523    2.98237460837060   -2.80171929828444
C          13.53083845782219    3.01504361850132   -3.87942665574016
S          11.91043508441126    2.67138626930921   -3.32699190183005
C          13.73760710970051    3.26271676849707   -5.22830522371027
C          14.90492087804444    3.61042020765666   -5.93464680111443
C          14.69882789190581    3.79321124844791   -7.27309299299361
C          13.36174841810261    3.59227524629175   -7.69332074721362
S          12.37736140860564    3.15464651851031   -6.31474739629551
C          12.86627620085641    3.76778593156725   -8.96757383193432
C          11.54204911952252    3.56552602906250   -9.37809810098254
C          10.48261555835638    2.95597828249078   -8.70056181110879
C           9.30284879222711    3.00155474994563   -9.41870156181914
C           9.42630040558182    3.64869764696607  -10.66493285770524
S          11.02892053085374    4.16958519985347  -10.95798002905383
C           8.15186456865167    3.68209947009985  -11.27218275298107
C           7.22105180241901    3.06494591495474  -10.41402000169949
C           7.91330431262139    2.59142605347537   -9.23605926427132
C           7.40858847587208    1.87861393733799   -8.18717561585260
C           8.21695013620032    1.37688620553227   -7.14529860342073
N           8.86033551465493    0.91506860792278   -6.31543868631113
C           6.04344643740963    1.53240898735428   -8.08909580315571
N           4.94093599663123    1.23359406820610   -7.99402915693400
C           5.91388678771607    3.06150118077594  -10.93002126726541
C           5.88022668296829    3.66728383549911  -12.15461809465897
S           7.43394513149250    4.25698584829158  -12.71746639314286
O           4.85861742211225    3.89337578403949  -13.02422706445498
C           3.56863015515055    3.65284909025705  -12.71744991406822
O           3.15592040371228    3.22206929342463  -11.67452535750604
C           2.72673469684326    4.00323810243542  -13.86826516012213
C           3.10470478328077    4.46150961636137  -15.16900209840493
N           2.03996250195240    4.65940148481185  -15.90913307695969
O           0.96645118948832    4.36071414875422  -15.17640675996543
C           1.34378104820747    3.96436737607693  -13.95162008997886
C           0.38236639082973    3.59854865144378  -12.98983444038636
N          -0.40698265441517    3.30682027788995  -12.21485153575194
C           4.41808270282663    4.68054662904096  -15.63984534209429
N           5.49190577337691    4.84843182891736  -15.99527655524483
H           3.71983014621087    0.96804255934767   -1.51000259630059
H           9.58185608540913    2.52618819678290   -2.65178897548214
H          12.11152438008878    1.97041624834560    0.33148208252250
H          14.37835834634436    2.60634697613716   -0.67247147613390
H          15.48654580317155    3.16905571156731   -2.93241141122499
H          15.85542829942825    3.72746827962425   -5.44563549234359
H          15.46883718471318    4.06911122870409   -7.97187420227473
H          13.55751104980330    4.13865644057899   -9.71285538652378
H          10.57899575510812    2.48255577597622   -7.74286709056503
H           5.04900981204369    2.65207936858798  -10.44035150989502
