84
 SCF done       -173.023906366113          0.000479354510
O           6.75353437056620   13.92516362061056   -2.27604833011925
N           7.67950027532449   13.36750202503548   -3.05932396818756
C           7.80579075648915   12.10993022634613   -2.70980638261155
C           8.70701725213239   11.22549859480810   -3.34157886994999
N           9.42760747520671   10.48639402566367   -3.83389915837525
C           6.91747449860844   11.80072931832548   -1.63265520166870
C           6.27735638803934   13.01352873714958   -1.41126280407366
C           5.28656840358499   13.35156201637114   -0.47433738775790
N           4.47913687269148   13.62716580562546    0.28969011402324
C           6.70510233095148   10.54353197127169   -0.91529369978324
O           5.90911703438211   10.40645778187600   -0.01783779723637
O           7.52420111052286    9.59882019047772   -1.41299556932227
C           7.59608825371981    8.30614995769976   -0.96311328151574
C           6.73758768199764    7.70042537522679   -0.10385105882011
C           6.86662332208615    6.36428143952851    0.30554073497202
C           7.92237991072185    5.51488799618385   -0.26494475561859
C           8.86900190674503    5.93785797978832   -1.12980003003652
S           8.99531418339572    7.55296020132077   -1.71061232357658
C           7.70831676605888    4.22112592768566    0.28926717681796
C           6.61238146790220    4.25786823816640    1.14700875428204
C           6.35218442661736    3.00073373862588    1.73508780858702
C           7.23989962866953    2.06183360219632    1.31276312562183
S           8.42054515136185    2.65996621312263    0.19717470864521
C           6.08026973127895    5.60148043359271    1.18271477124130
C           4.97858977787360    5.93309729117068    2.00861564192579
C           4.49354713877612    7.16405698838535    2.32262080364861
C           3.38116938697983    7.41701651260324    3.17556374685943
C           2.59885579728104    6.44726433567273    3.76515982552532
C           1.53199818282878    6.68186970360791    4.62478221719357
C           1.05961526031021    8.05087857427882    4.87355434873623
C           1.66984636705002    9.16089873692215    4.39949370634579
S           3.08437422284982    9.13141362847359    3.43489723836211
C          -0.10857565169547    7.91269041640072    5.67038889481490
C          -0.34742372747324    6.56140780671192    5.92172443412570
C          -1.49845574086166    6.36167143775319    6.71647677642564
C          -2.09045849704246    7.54101505325472    7.03818706192230
S          -1.28177301526386    8.93502350908808    6.40110731374889
C           0.68603899976959    5.77310568570924    5.30207511893410
C           0.75421850947035    4.37009759090182    5.45109803156954
C           1.80936416578083    3.55823101292327    5.16525775364274
C           1.84692078121212    2.14645954677000    5.32850884563178
C           0.84729778290926    1.36883853363168    5.86574131360499
C           0.90870033012357   -0.01225203270222    6.03318190429720
C           2.08585694860318   -0.78577685683278    5.62028831595529
C           3.18953205864132   -0.24243491088839    5.06297790443133
S           3.36047648030611    1.43673019830666    4.76254047647618
C           1.78047984764442   -2.13372688616186    5.94980983842329
C           0.51228613362285   -2.20915979793516    6.53316131724361
C           0.17592515569396   -3.53896862873075    6.87603179575305
C           1.16805594483452   -4.40931823579927    6.55435187712087
S           2.54952609838745   -3.66543116947671    5.82493046104019
C          -0.04494621221347   -0.88353089849975    6.59214109940496
C          -1.29658957871817   -0.46341819298739    7.10803635648508
C          -2.23596130572195   -1.22803373658017    7.68829672230049
O          -3.37684901893069   -0.60797628160129    8.12661608926512
C          -4.34301063061605   -1.31815487475375    8.71970604764410
O          -4.32332311806729   -2.50881731986715    8.92030518820131
C          -5.44347408252788   -0.42223223201639    9.09466323003795
C          -5.54868846450412    0.99265502911955    8.91279907623196
N          -6.69226845080585    1.43114272499823    9.38404699340514
O          -7.36419657995604    0.38841356765944    9.87397881099690
C          -6.64215848528486   -0.73616407006476    9.71598586359318
C          -7.14024787649803   -1.97425647168319   10.15776347951254
N          -7.55178006348639   -2.97948910976803   10.51995278864507
C          -4.59046123544108    1.84539804928253    8.32340915106976
N          -3.80231244600906    2.52369385945075    7.84592396179126
H           5.90660750654713    8.28376091551588    0.25726710033082
H           9.63177921219800    5.28068181131876   -1.51602562504284
H           5.55908047319813    2.78985815404570    2.43002038375274
H           7.28176187385746    1.02686751411111    1.59064234335232
H           4.50755599428827    5.06739662308707    2.45553590598174
H           4.98147373609081    8.05106650981242    1.94878082480865
H           2.82712748471664    5.42586693383598    3.50812285245859
H           1.30647520946348   10.15451479725092    4.60988433224029
H          -1.87813105234680    5.40692744888118    7.03260676046189
H          -2.97522535004942    7.69227175276909    7.62512299270504
H          -0.13596087738537    3.92868229707768    5.87919093554852
H           2.73102876478538    3.99097847061852    4.80708251205159
H          -0.04562173015461    1.87970118374366    6.19366100615907
H           4.04602156438535   -0.82862994492948    4.77002501995447
H          -0.74305453183360   -3.85389008720758    7.33376156482196
H           1.18126045643698   -5.47163685576477    6.70122190957067
H          -1.52490502827858    0.59163208504384    7.03562499959174
H          -2.18851409456628   -2.29244311260009    7.85460578351986
