87
 SCF done       -171.505229457651          0.000564781837
C         -12.64027678878773    5.65987503910139    9.32905905971837
C         -13.08752002727990    6.08648473059479    8.11259177376352
C         -12.34085373127953    6.95605018271821    7.28917588599042
C         -11.09903358883455    7.45269795208158    7.63138670675315
C         -10.60367094295769    7.02589093777612    8.89880348424434
C         -11.37936309400544    6.13477490140633    9.73351196457813
N         -10.68072111647077    5.91538438708335   10.83144200977100
O          -9.55612644960070    6.60982758148556   10.70236255244339
N          -9.48695253195723    7.28325257944308    9.55266036252514
C         -10.34594901622460    8.34091869038940    6.76997290571564
C          -9.09381606629663    8.83004397832615    7.10807835152989
C          -8.34032762342090    9.68178879512250    6.29516821106852
C          -8.77032665254901   10.13156735514976    5.05641437112758
C         -10.05613797886470    9.65907372340138    4.66921037021364
C         -10.83611568015168    8.77647480266549    5.50731579838927
N         -11.96015810113624    8.53350744150495    4.85925606589148
O         -11.89735752070723    9.20423810474117    3.71066690868044
N         -10.75894648050102    9.88760111028888    3.57792716486964
C          -8.01796693300826   10.99411051557027    4.20400515038567
N          -8.51850523497222   11.40599084273299    2.99027476948174
C          -7.59843233383423   12.20349476845466    2.39486191647944
C          -7.32966445880446   12.95870354121827    1.26114160990459
C          -6.04943100321590   13.50264678597763    1.45056913574266
N          -5.55144623718027   13.09235897378213    2.67066145065415
C          -6.47632896560164   12.29825809241388    3.26612315387469
C          -6.74174898215321   11.54032858726389    4.40024302092347
C          -5.34177705180611   14.32870421563888    0.54978936790408
C          -4.09210616497469   14.82408851122392    0.75279152632430
C          -3.39459230161433   15.62083329911680   -0.18007966766602
S          -4.08144459274827   16.04450806707163   -1.71442549722146
C          -2.10206955437374   16.14036588319281   -0.05770955163421
C          -1.23210527338508   15.82627832290534    1.09262913243928
O          -1.60283894501087   15.22931850884582    2.09378955293142
C           0.13511172650197   16.26786017946179    0.89235682171103
C           1.26407670448659   16.04480738319842    1.65062704937776
N           2.30760902158089   16.68139476003741    1.06773331193595
C           3.67703132480871   16.61131348237237    1.51208996331930
C           4.40108179398903   15.42905868369816    0.87127940189076
C           1.88343220187294   17.32163210958833   -0.04667714094023
C           0.53353052627780   17.08838441887358   -0.19823395249550
C          -0.38154121217794   17.59756221491197   -1.19967441319281
O          -0.08944708952902   18.52806232351285   -1.93429554298851
C          -1.69395153169110   16.91330476498677   -1.17943582587299
C          -2.65534594378016   16.93447259240680   -2.19456578754689
C          -2.67323017748090   17.37038421275303   -3.54221965069297
C          -1.69045817644762   18.02346966594090   -4.21761149822351
C          -1.73843884120914   18.26796142723130   -5.60312901914592
C          -0.67726235342724   18.68563748855862   -6.35823177612219
C          -0.87774427608441   19.27473277583338   -7.70091646001196
O          -1.87972010518855   19.24069733579881   -8.37751070184755
C           0.40037150123741   19.96106308443993   -8.01177725190027
C           1.32598065011580   19.71891265608482   -6.98082824566965
C           2.58871064253522   20.28638912710990   -7.03422910443422
C           2.89705907656359   21.08459417261810   -8.12569020564463
C           1.97802208824820   21.31013356247459   -9.15055444285638
C           0.71237609719765   20.74761415255202   -9.10276779263365
F           2.32239301002113   22.08076808559543  -10.19035381987817
F           4.10784948793926   21.65141355237860   -8.19350973653235
C           0.71934464541393   18.81014568479886   -6.00638876374809
C           1.40892872457549   18.07082688376302   -5.08120944387884
C           0.89501751917993   16.95363220509645   -4.38617269350702
N           0.59369597164218   15.98657829084751   -3.84583662877987
C           2.77154545012650   18.25854080873584   -4.77166425975033
N           3.86703081704399   18.37450610957900   -4.44756100207728
H         -13.20012682624374    4.99647362917008    9.96594804357438
H         -14.04904388358638    5.75459369070589    7.75062046289285
H         -12.76481690032089    7.24659564560179    6.34126477565309
H          -8.67525700036836    8.53324574447344    8.05679740432779
H          -7.37582275363076   10.00045007899224    6.65653005111367
H          -9.42567066497869   11.12368914480082    2.64847479536895
H          -7.94783117383938   13.11344344203188    0.40007763709845
H          -4.64960564783215   13.34772290457107    3.03436122507538
H          -6.11358614824677   11.39047694277820    5.25426100103089
H          -5.85724709193012   14.56448957619037   -0.37266485296131
H          -3.54918726875163   14.61774370333799    1.66339944006185
H           1.37485948804751   15.47971802335622    2.55477731212128
H           3.68399275961393   16.51035676613042    2.60050450886238
H           4.17726563806897   17.54506095321385    1.24342555969331
H           3.91287112015502   14.49493212863665    1.13860195822704
H           5.43136616408590   15.39548140940747    1.21364817690575
H           4.39551382536771   15.52444513736634   -0.21174866265977
H           2.54928382100198   17.88481833324129   -0.67015572795872
H          -3.55275278630296   17.05948116957979   -4.09668695272190
H          -0.83022722281837   18.37815875738033   -3.67211417477412
H          -2.68869123708553   18.18129523345784   -6.11900521824992
H           3.32939643715968   20.14205802716724   -6.26463065126755
H           0.00036950171269   20.92201415462510   -9.89356651676882
