93
 SCF done       -191.310984926110          0.000633232059
C         -11.06800707472061   -4.26659370343609    3.03341622778597
C         -10.32517004570637   -3.91217919068969    4.12336989619223
C          -9.41688549835999   -2.83430603748414    4.10425298855343
C          -9.19970642146450   -2.04709404879646    2.99167922419102
C          -9.96007915263479   -2.39111622274983    1.83828639802333
C         -10.88712186236931   -3.49790450347192    1.86874531400019
N         -11.43704368519907   -3.57577684801855    0.67045984743142
O         -10.89894390216356   -2.59918263780568   -0.04982093662067
N         -10.01154585096817   -1.87521501288713    0.62602170822096
C          -8.27439515273225   -0.95317187197024    2.96574163249481
C          -7.99506828467059   -0.11542790309628    1.90525274704083
C          -7.02889065314542    0.83859513497885    2.23276418093566
C          -6.57205842310626    0.72091025693900    3.55738488315550
S          -7.32986191586049   -0.55491238923220    4.39561369251720
C          -5.58896283274910    1.71479208393678    3.79032124452443
C          -5.42367902994012    2.46285835741207    2.61252628385289
C          -6.32652446857613    1.93891071317628    1.59565586702715
C          -6.46887605857240    2.39233146774038    0.31774785617688
C          -5.71397908301773    3.47813144254313   -0.17467260506826
N          -5.09658153325473    4.36000668746874   -0.56984597749579
C          -7.37244544068953    1.81619581777788   -0.60124004807615
N          -8.09911943477253    1.36348344690688   -1.36312647213719
C          -4.45825133409083    3.45930354078135    2.73347093483945
C          -3.88492485269757    3.47482260399237    3.99369262864118
S          -4.55908325861505    2.24049528143962    5.04856926394028
C          -2.85070034516431    4.32380005953484    4.45486883383254
C          -2.24623769633088    4.32726307611479    5.69966726210491
C          -1.22779316031787    5.27453811875260    5.78422349678669
C          -1.05784375572292    6.00433583134323    4.58784821377959
S          -2.15776352221807    5.52420820126314    3.36939678826521
C           0.01048322979203    6.90360008160887    4.75425480221133
C           0.53183766458665    6.75212841028845    6.05973575831085
C          -0.24427387813469    5.72665871067724    6.74834913417234
C          -0.07218457515667    5.28362010654302    8.02758144036361
C           0.93139981597803    5.80251024691335    8.87174487407564
N           1.74594984889657    6.22318837167700    9.56037740886610
C          -0.88728630742191    4.27629951981499    8.58502326212263
N          -1.55022555272979    3.45668136276476    9.03619976682073
C           1.62009721480775    7.56801518770249    6.30548657778596
C           1.96075624224160    8.36032408857672    5.20149829851732
S           0.86715011152599    8.07036546663963    3.84700110114570
C           3.06193329012116    9.21917622227170    5.15809563209110
C           3.49759050139921   10.01865730334893    4.12320099439307
C           2.92850596989731   10.29795017310877    2.86088273779074
C           3.68111085771126   11.12977202959857    2.08357400178377
C           4.88944287538155   11.54099520074269    2.68386943605976
S           5.02621310208525   10.87206264383068    4.28511925280158
C           5.88245010947416   12.33339814187081    2.12240608732851
C           5.88490205647315   12.93215758811452    0.84711307972451
C           7.03028171361241   13.62210878974719    0.56867763597423
C           7.98614653729596   13.59159970101844    1.60639020157747
S           7.37145372779246   12.68412930684434    2.96567814382857
C           9.23865538889759   14.17926943439420    1.58563270975107
C          10.16047923514986   14.06123351475678    2.61734079787814
C          11.42320148462521   14.61201949523181    2.69758803290218
C          12.40993854074225   14.00822719934445    3.62159758530068
O          12.19004227995268   13.19488342533770    4.49293295567893
C          13.71792819134384   14.56655094123094    3.21688104278948
C          14.96310410058065   14.26084929651482    3.68183369550498
C          16.08616749053860   14.90212222337875    3.11074043601122
C          15.89155579346816   15.84764865007605    2.06331009924367
C          17.01480742970485   16.47797949026420    1.49244310939049
C          18.27199935745765   16.18503626413670    1.94190689968825
C          18.46305179017041   15.25064713464438    2.97818684908394
C          17.39357482278935   14.62167135358192    3.55180352255271
F          19.70785789708679   14.98089056495112    3.39865911864142
F          19.33926278836695   16.78677320738193    1.39713923357702
C          14.58625990932876   16.14919319341083    1.60783445509028
C          13.51408842645954   15.52132276801504    2.18053623105940
C          12.07398448618460   15.64411659020255    1.94110859752944
C          11.47796032998860   16.69007110747810    1.27361357741431
C          10.09650815277725   16.96375521355501    1.29100285767806
N           8.98766401879294   17.26397245766483    1.30064683311812
C          12.19203488629502   17.68381093351166    0.57680332278533
N          12.71807079176223   18.50908017386973   -0.02475664961601
H         -11.76326856746148   -5.08835363230693    3.03904781377730
H         -10.42615062407965   -4.46994356888914    5.04213701155838
H          -8.86524350508829   -2.61781244656202    5.00797892432029
H          -8.48176755555628   -0.21713027583507    0.95222267150610
H          -4.16981768764030    4.14315041213491    1.95543384053374
H          -2.54037599704714    3.66004729778046    6.49002609011195
H           2.17170613172799    7.60588388563704    7.22735921151846
H           3.66661085256435    9.22249073236288    6.05630744555464
H           1.98049589019411    9.89767510498504    2.55260986348198
H           3.39840058508340   11.44558689151317    1.09591696372755
H           5.05463333289511   12.84316276863165    0.17029540940578
H           7.21624354673879   14.15074964114450   -0.34890211901530
H           9.49995654348480   14.71758776979938    0.68640298747904
H           9.91545856617538   13.37958728911151    3.42718727789479
H          15.09160286968667   13.53841191340793    4.47342976223219
H          16.88601039690246   17.19835156064847    0.69974810893846
H          17.55630883568488   13.90824306169318    4.34444614648833
H          14.47144796528976   16.86472655459446    0.80951627960655
