78
 SCF done       -157.286453763734          0.000838422376
C          -5.09658044900963    0.90195995305802   -5.77742434961598
C          -5.43889909796964    2.06270537750219   -5.14321527141722
C          -4.84705320725094    2.46766628439601   -3.93062018445536
C          -3.87415861033608    1.73424393964069   -3.28009339045625
C          -3.49499096253837    0.51825417396007   -3.91688303406920
C          -4.11005635910310    0.11223499758262   -5.15909383067584
N          -3.56654478242811   -1.04148206832438   -5.50231523008572
O          -2.68389352777339   -1.33385900321485   -4.55264061718842
N          -2.62272940744252   -0.41501398154617   -3.59222563724727
C          -3.27172301149879    2.14126268163892   -2.04752771876642
C          -2.28161619514430    1.49224062915628   -1.33920956566501
C          -1.93512487390400    2.17541684113966   -0.17159835649679
C          -2.67832140417718    3.36296779537010    0.00909939920618
S          -3.78932467274647    3.63084380709908   -1.25787955576590
C          -2.27448479733985    3.97754367389947    1.20999806342140
C          -1.26846446760582    3.18208845039234    1.80067728827781
C          -1.02333971543176    2.02706399775132    0.94060162476236
C          -0.11223146300200    1.03274450569748    1.15774221623498
C           0.72669527055657    1.03433794349686    2.29017617773335
N           1.40993807785865    1.04597216035563    3.21199921996630
C           0.06141401612230   -0.05246114489567    0.27360712630692
N           0.22059386115309   -0.94324117521761   -0.43040054743346
C          -0.80920416010575    3.68046427628683    3.00610825393204
C          -1.44742663522295    4.86898485989836    3.37133849525149
S          -2.64645594119311    5.34835119744201    2.16181772573181
C          -1.32755525439554    5.67140742794068    4.51063064707186
C          -0.42885819182469    5.57628131577522    5.55323700234209
C           0.71391080477158    4.77041522072516    5.75356425511735
C           1.34117847150443    4.97874362371087    6.94835338205529
C           0.72495952103806    5.95224008738689    7.75986930824815
S          -0.65984138250333    6.62702204204878    6.94463139137932
C           1.09021594815272    6.35051400645468    9.03819777701453
C           2.16897022421215    5.89298153497701    9.81928434484740
C           2.22932184179421    6.46195670020809   11.05851149334430
C           1.19944027857050    7.39451152193286   11.32450852492293
S           0.16118951535052    7.53719655907237    9.92048135007095
C           1.02405570646768    8.05511069786964   12.52187621193937
C           0.01675348774171    8.96004592317121   12.86914513555866
C          -1.02118069896422    9.49801023031588   12.10276170644741
C          -1.83212811206959   10.34431680354692   12.83678439021098
C          -1.43590931449726   10.47402840223887   14.18576219478790
S          -0.03879051203699    9.55053642216292   14.53448781845318
C          -2.34411396135655   11.33123992116268   14.83610333421378
C          -3.31886369618798   11.75640737445485   13.90679037923098
C          -3.02480541584013   11.15963158240757   12.62214745143742
C          -3.70231282012323   11.31714079519154   11.44740318175362
C          -4.84525392271347   12.13624074829671   11.33149349912268
N          -5.77484115472786   12.79665872385740   11.21418239609805
C          -3.30280036281642   10.67252597713924   10.25830285514623
N          -2.98565396279130   10.15121622671701    9.28697723491410
C          -4.27558618415947   12.60052237495243   14.47385914905673
C          -4.04547537447153   12.82134990501975   15.81622040384406
S          -2.61096666625244   11.97399512093183   16.39446497250083
C          -4.82394697801238   13.61522820910495   16.71674841510881
C          -4.51728906407003   13.77129069122956   18.05444828439161
C          -5.29061205897207   14.54812825237448   18.93927396895484
C          -6.41518218386442   15.21500121015713   18.54243341701105
C          -6.77642871017892   15.09274070573142   17.18832382841302
C          -5.99117973073100   14.29919810319831   16.27187919595108
N          -6.57476791469337   14.37671666718835   15.09266759392535
O          -7.64089443835870   15.15642497825820   15.25400526508474
N          -7.78387093998815   15.59763385812622   16.49949902742415
H          -5.54434689608766    0.58516388388674   -6.70365099967607
H          -6.19101145130521    2.70494932045741   -5.57630255568115
H          -5.17285100325063    3.39957578510810   -3.49103151958596
H          -1.85107496494683    0.56662559899223   -1.67618016949754
H          -0.07502882006534    3.19399580971985    3.61773101033902
H          -2.05672576370024    6.46798493649088    4.59132317132819
H           1.07530446195813    4.07653246645042    5.01851629709104
H           2.22508618571068    4.45194804260976    7.25970817968620
H           2.86701364987775    5.16043308125426    9.45671511965884
H           2.98009187631181    6.23363788074197   11.79422780989760
H           1.74303523520363    7.82303522288028   13.29748772636577
H          -1.15877000149983    9.27640469324150   11.06159063432736
H          -5.10897680106952   13.04127652606797   13.95730394877837
H          -3.64181078966644   13.27306074986443   18.44583053050095
H          -4.97033653134588   14.60889120181682   19.96859027491880
H          -7.01200266333900   15.80970468349497   19.21242145242202
