114
 SCF done       -227.534280749787          0.000378913143
C          -6.87419668621155    9.63736582841421   17.12319846348725
C          -6.88493531493494   10.93321706523814   16.69413942629495
C          -6.58986433638649   11.29366938935475   15.36228909327925
C          -6.26651513934151   10.37711071959480   14.38539360589255
C          -6.24926144046708    9.01556418401611   14.79949661336045
C          -6.55315162595894    8.65718217305018   16.16554619326491
N          -6.46190221022640    7.34281684524723   16.25260391063629
O          -6.12952706840129    6.91181379265503   15.04102056063274
N          -5.99628618581634    7.89494019660631   14.15183694611074
C          -5.96336553103630   10.74418164107819   13.02982682143209
C          -5.59355571533963    9.91445081618510   12.01277190991062
C          -5.36363514957479   10.58380542565662   10.78627184337850
C          -4.93419869029242   10.02596127672409    9.56429362634125
C          -4.78001191539296    8.59420249612519    9.41111101532902
C          -5.59511795265707    7.60492237582255    9.88191320958770
C          -5.13116215271843    6.31374460160502    9.55007913378313
C          -3.96775038682767    6.29771702670609    8.83688598773224
S          -3.42506356277984    7.91599858826638    8.54940060809834
C          -3.19646474509036    5.13094772755165    8.33952573091002
Cl         -5.97658845775389    4.88773295169237   10.01481075920698
C          -4.67299824269663   10.92118900560208    8.53473213469028
C          -4.84435923083258   12.32347348918243    8.65551022394690
C          -5.30309162191317   12.87964099127624    9.86740115064545
C          -5.55276548283318   11.98269713029613   10.90215629648176
S          -6.04921502179064   12.41693725329733   12.51308598770542
C          -5.49472688788788   14.30337241595855   10.05348500725365
C          -6.48437442768776   14.92594208859522   10.76001760174816
C          -6.34531243933831   16.33033819262413   10.77515353526143
C          -5.25541281760454   16.79953534903794   10.10151156479328
S          -4.37157581886545   15.47783163715113    9.41940170064731
C          -4.80439494398360   18.20060187617417    9.91176044584059
Cl         -7.47119200341422   17.35369911696248   11.58221906358477
C          -4.54577059994804   12.99532250152840    7.44728612200665
C          -4.15040551902381   12.16223353747656    6.43856139370600
S          -4.14406343463217   10.48402388326043    6.93360963536314
C          -3.75089305529834   12.54074565297240    5.12536595120313
C          -3.49422866335874   13.82101635749022    4.67428264271151
C          -3.10031734752864   13.83249778646467    3.33548816239225
C          -3.06599388163420   12.55137775435070    2.76370744212656
S          -3.50739336291413   11.33376779130580    3.87613433558992
C          -2.64824713883024   12.67359205460708    1.41106186875018
C          -2.40642550203638   14.02842756658123    1.13676562653698
C          -2.68781532191649   14.80372898041837    2.33412600722881
C          -2.58908477316828   16.15510315783262    2.49025936155296
C          -2.17280278016393   17.00665514348959    1.44509607717658
N          -1.83556601480170   17.70599868539422    0.60153000874806
C          -2.90363934919247   16.79290901983787    3.70858733226647
N          -3.16074726901761   17.31571310802844    4.69642937884999
C          -1.97641606059751   14.24913848998810   -0.17416647635879
C          -1.90125430462096   13.07716376892571   -0.89715141646537
S          -2.36465440646349   11.67469578784394    0.05566448522717
C          -1.50695431073131   12.92022771836952   -2.25464934062063
C          -1.55469303738680   11.78743566715453   -3.01530407835025
C          -1.08820156683194   11.97127674412570   -4.33884869954889
C          -1.03679292002902   11.02555690161546   -5.38256936799953
C          -1.55307515343763    9.67900026840278   -5.24343285409935
C          -1.04223746861924    8.52503495435702   -5.76438398460390
C          -1.84879204944960    7.39832334934428   -5.49396686095512
C          -2.98047662211402    7.66901060879383   -4.78224064754657
S          -3.05721932725925    9.35978397022717   -4.41871275878647
C          -4.04799246307703    6.73878138970535   -4.33612719539988
Cl         -1.42403004040868    5.81763173453188   -6.02948560249993
C          -0.49226938482879   11.46289865803833   -6.58646487233362
C          -0.03612204500254   12.78686568613961   -6.80323815628501
C          -0.11421514388588   13.74024629299216   -5.76828037529812
C          -0.63125072770401   13.29506875445355   -4.55653993745341
S          -0.85295438437008   14.28325836820015   -3.13818880461056
C           0.30490347493552   15.11618021973413   -5.94126665873820
C           0.96450339582099   15.90566980351893   -5.04218998343615
C           1.18293338929300   17.21385384287825   -5.52327519979980
C           0.68754139416617   17.44609396926974   -6.77389788239932
S          -0.06286518977891   16.01450372398596   -7.38881925742546
C           0.73072628365047   18.69501646960892   -7.57472808587469
Cl          2.01027369073758   18.40592621008136   -4.59695089021822
C           0.46722791741197   12.96449611761639   -8.11483978653502
C           0.37906063753446   11.84876797228519   -8.89306365007625
S          -0.32447755651975   10.49813918836948   -8.02511462519510
C           0.79493472695381   11.70791375950654  -10.26081878987086
C           0.67516616866805   10.53234014214326  -10.96977779739392
C           1.07986043394760   10.39478551445819  -12.31446614347410
C           1.62472656571348   11.42463155742199  -13.02566810200129
C           1.77034443394679   12.65115794799164  -12.35084845595045
C           1.36121079078918   12.80234114626243  -10.97339699925269
N           1.62195820363747   14.04729118861697  -10.62609731046194
O           2.15158530386924   14.63146545260931  -11.69992153686862
N           2.25067735059670   13.81619727845979  -12.74463273187330
H          -7.09723666736755    9.35227170029527   18.13710923709153
H          -7.12584162215117   11.72349633040138   17.38909315144740
H          -6.61766510143716   12.34055971512462   15.09676789080170
H          -5.46342914075429    8.85885401210712   12.15893618227768
H          -6.51310550334377    7.77979147428033   10.41127717223387
H          -2.23311818464427    5.06436652720463    8.84516164759239
H          -3.00848614305241    5.22297811197519    7.27083664175694
H          -3.75440365064470    4.21692031493411    8.52675252643731
H          -7.30848064164474   14.41632267406821   11.22324901134022
H          -4.67882989666521   18.42215885452660    8.85272217504678
H          -3.84580439946529   18.36578409796361   10.40353243698344
H          -5.53835217699861   18.88223798017240   10.33436387627146
H          -4.63737001656052   14.05658022093378    7.31866181534033
H          -3.57601629613753   14.69104167049196    5.29842864020589
H          -1.73086943502150   15.20711964770144   -0.59613091435500
H          -1.91219497691137   10.85075964172933   -2.62824952991703
H          -0.10911848553786    8.46167715096702   -6.29208103981301
H          -4.99974749207208    6.99611181775756   -4.80071762796497
H          -4.17762830043146    6.79148676586474   -3.25583711729644
H          -3.78520574361569    5.72096403796367   -4.61322208116568
H           1.32139890845660   15.56783549224181   -4.08718979525725
H           1.38023263702274   19.41894145931136   -7.08883228548428
H          -0.26621869822955   19.12637395691486   -7.66774757723395
H           1.10446572053427   18.49373158490732   -8.57734399994889
H           0.89063708521306   13.87881600784760   -8.48535598245848
H           0.24977147696148    9.67250018084880  -10.47271681744937
H           0.94628570050124    9.43266169197630  -12.78572877015633
H           1.93533826478109   11.33017961274060  -14.05214955284989
