114
 SCF done       -223.997542434607          0.000698301718
C           1.28667640149090    0.73725894860424    6.29497949243173
C           0.27539508759070    0.65500564519189    5.38071179058635
C          -0.25128319128266    1.78353129294236    4.71594981464693
C           0.20852911011326    3.06513344073047    4.93498368075055
C           1.26162771199691    3.17940465336488    5.88177483528474
C           1.79677906020382    2.02239133641482    6.55612579939900
N           2.75317197148842    2.45208767147792    7.35970155003617
O           2.81019467280057    3.76971768255365    7.19896035811656
N           1.92606000763271    4.23008251537573    6.31822240225828
C          -0.30152555664543    4.23571516242091    4.27188825495181
C          -1.29154072171151    4.30626049838593    3.33073726547766
C          -1.54463255835532    5.61602649140968    2.86477630083711
C          -2.51042073964855    6.03323812929810    1.91956470009264
C          -3.26897795094542    5.10115196128399    1.11338711545373
C          -4.49984779496303    5.26462367389950    0.53704186661201
C          -4.85288510880379    4.19698986417367   -0.31376591221572
C          -3.91539731560402    3.20860498717934   -0.40394565481356
S          -2.55564057695552    3.59560171222692    0.58529726725458
C          -3.96820115496101    1.96372570910043   -1.21205440099957
Cl         -6.32509277340931    4.14078930882728   -1.20652100681920
C          -2.63283020111307    7.40940143373860    1.74419638954461
C          -1.80096760723095    8.36462091475230    2.39044816464622
C          -0.80458753826161    7.93847852264746    3.29778771270160
C          -0.71413207606166    6.56613335507090    3.51278806496146
S           0.37318248133201    5.80070402147499    4.63841809427786
C           0.06954626535458    8.85886626827793    3.98916560879425
C           1.38681666072544    8.67873630636445    4.31216759053705
C           1.92364319615818    9.76115880959263    5.03769359606358
C           1.03375423521490   10.76581456400386    5.29604817012507
S          -0.50618021355650   10.38275216174786    4.61277872740370
C           1.25884976550467   12.04206900651226    6.01870605755306
Cl          3.56378870589204    9.79890995902280    5.55487024721371
C          -2.06763506676293    9.67665387807682    1.95111775136682
C          -3.10422710012116    9.76497041527939    1.05450500667834
S          -3.76388278456014    8.18966498523197    0.68000678625454
C          -3.56493668880583   10.97318951880558    0.46662615773194
N          -2.79792889687454   12.05561086674236    0.49888221213360
C          -3.46831915685027   13.00249413888135   -0.18525672685723
C          -4.75334022806242   12.49310800266708   -0.68596867942853
C          -5.47227347734052   13.53923445928423   -1.42639943221777
O          -6.54577246434928   13.46647587856210   -1.98865241969430
C          -4.55902839656985   14.69142976568750   -1.32129747303616
C          -3.34869492119301   14.32011725724134   -0.56101236863575
N          -2.51312214631298   15.38025732173812   -0.44432912288416
C          -3.11921055162262   16.36364644093307   -1.06664766088405
C          -4.40235748554932   16.00528909952745   -1.63096980846279
C          -4.84751760291249   11.19712833057670   -0.24461350758184
C          -5.91986253371891   10.27035003020317   -0.31386054859620
C          -7.04859921715929   10.43905679162056   -1.03935472623981
C          -8.10410853129158    9.48725289606535   -1.02246936837313
C          -9.25405015783047    9.50141498148616   -1.76315253716972
C         -10.11121554501801    8.40323233039395   -1.51689360809695
C         -11.37326868954808    8.13950390531593   -2.08893870998116
C         -11.94038168289047    8.95810779972889   -3.14020077877868
C         -13.24766211982103    9.31288629338312   -3.31611814485484
C         -13.45489978209700   10.06828818725264   -4.48991965692349
C         -12.32819244555616   10.29015679893483   -5.22730461224909
S         -10.96440892559006    9.55763419643538   -4.45551285152798
C         -12.18072289485250   11.02829125478052   -6.50674427229502
Cl        -15.00973494848398   10.65530534898658   -4.94071393779853
C         -12.04911543573862    7.02369648353180   -1.60548859902667
C         -11.53486754104070    6.16921574304904   -0.59829144874284
C         -10.27337253861719    6.43166273402571   -0.02382710876283
C          -9.58998491845029    7.53833292722428   -0.52008683286066
S          -8.03531197867660    8.08685914632037    0.03254816792069
C          -9.71112499800857    5.62281168423493    1.03715499654290
C          -8.39343834829843    5.33242623911208    1.25159253117865
C          -8.18229807762816    4.56716818089808    2.41608939740258
C          -9.31747196870841    4.27861987970366    3.11651937032173
S         -10.69342446071767    4.95559716320475    2.31531104382180
C          -9.46820142781834    3.50624996664351    4.37521142655574
Cl         -6.60928978054033    4.05200167270255    2.89716708393943
C         -12.39770490611632    5.07605271213608   -0.34507866707246
C         -13.53038567269733    5.08041806713775   -1.10496096645753
S         -13.58985932296420    6.45777580675287   -2.18559949371416
C         -14.59611668851757    4.11778556600421   -1.08097748113067
C         -15.69455730579937    4.18699389718072   -1.91044060530843
C         -16.74477320802150    3.24524746538005   -1.88438760572828
C         -16.75680255396479    2.18312370998509   -1.02687781374781
C         -15.65823439175852    2.06208831707685   -0.15546961359773
C         -14.57596162900639    3.01937030653101   -0.17566154141445
N         -13.70714939836322    2.64149676021910    0.74119826264966
O         -14.20420724901237    1.53549962940565    1.29372331516479
N         -15.37128526487496    1.16905531348199    0.77362327402990
H           1.69006416652231   -0.12256544652665    6.80196506075527
H          -0.14932609254699   -0.30935845481177    5.14511861552739
H          -1.04808276609758    1.62359933591942    4.00695907142735
H          -1.84425384223308    3.44760955691683    3.00100051906502
H          -5.15581946430631    6.09096507075901    0.73607091081773
H          -4.94651660920584    1.49504746745279   -1.11325542648842
H          -3.20068261408430    1.26547703961314   -0.88913993256837
H          -3.81038147916241    2.18953287811881   -2.26765472564170
H           1.97231698747901    7.82890096257860    4.01543187071636
H           1.30666448397267   12.87472768246918    5.31613361591791
H           2.19768879276379   11.99415467821161    6.56476261772530
H           0.44618984294638   12.23826701346884    6.71555864587642
H          -1.53703590036905   10.55605182533826    2.26358755781377
H          -2.65834054947320   17.33456226816482   -1.12468425430433
H          -5.05357909491626   16.66464110870111   -2.17018543870733
H          -5.83044923036894    9.37492070194225    0.28656501557087
H          -7.18282603068569   11.31399779077712   -1.66174204313491
H          -9.47553551691842   10.29366729606451   -2.45381745063284
H         -14.03489710482218    9.08333725631449   -2.62259157691939
H         -11.93430159788096   10.34309962217245   -7.31895426334221
H         -11.38079649149197   11.76429423638094   -6.43432671205371
H         -13.11262781933910   11.53516082940161   -6.74692537909930
H          -7.60130114979266    5.60630243207605    0.58283697007785
H          -8.49450614272966    3.15828516982475    4.71156937909871
H         -10.11938655240661    2.64652596355517    4.22029958483695
H          -9.91176035568058    4.12534883968751    5.15458275550165
H         -12.19724209112113    4.29157739768301    0.35972055985837
H         -15.75578870634004    5.00271075658586   -2.61626957071696
H         -17.56353747968006    3.38329627704566   -2.57441934801196
H         -17.55407833875660    1.46020589034997   -0.99818862572001
