82
 SCF done       -157.823935629851          0.000427165294
C          -3.32285600820077    9.16299241012868   -1.92152122283570
C          -2.85002963593725    8.97265365063088   -0.65420516477278
C          -1.74597031559505    8.14522149907360   -0.37391002542963
C          -1.04021048034212    7.45206602774826   -1.34068048155971
C          -1.50895334274139    7.63515818381857   -2.67617300699255
C          -2.64485458999439    8.48658009811477   -2.95079295673182
N          -2.84601169197200    8.46430946794910   -4.25525271383990
O          -1.91500887274397    7.66939041793780   -4.76457620014188
N          -1.09950022552467    7.15953776686847   -3.83721250960103
C           0.09090065653587    6.61017363709819   -1.03942194702261
C           0.73731543743283    5.87747168813593   -2.00147902530284
C           1.84290619119110    5.05404918579022   -1.79014916310647
C           2.36347094244638    4.83338034593371   -0.43407045113968
C           1.88669960845670    5.45242940739830    0.66716135859605
S           0.59931161121854    6.58459565446355    0.64828197474210
C           3.40556899807016    3.87702137733482   -0.57567707475630
C           3.53702378409414    3.52785716945566   -1.91910073388661
C           4.56499336790992    2.58115392848327   -2.12527189660337
C           5.17101336877938    2.24186498442191   -0.95792334221014
S           4.52841671420828    3.05314446950850    0.43166819904483
C           2.57977713645511    4.27017428994150   -2.69986980128238
C           2.49902665267286    4.15294896010943   -4.10762847687805
C           1.84532141651068    4.96142617075607   -4.98334344016973
C           1.80696196331274    4.74497546948143   -6.37950049608501
C           1.17563638706790    5.54946244680105   -7.31835816570313
C           1.31223257602077    5.05660771588635   -8.61304546645298
C           2.05112240722105    3.86057378704358   -8.66812455157165
S           2.58129519394217    3.34997183375198   -7.12666326525066
C           2.12101085446543    3.43374077257111  -10.01335854888756
C           1.42376224284239    4.35446196288687  -10.81653396799814
C           0.90294809967938    5.41025076755504   -9.96505195224431
C           0.19541497911238    6.51010040910154  -10.35386991459198
C          -0.23209406529017    7.49685389229873   -9.44096943448803
N          -0.57315087714616    8.31245429712985   -8.71074941746977
C          -0.14349105067586    6.74355548595283  -11.70267932493046
N          -0.42183041818137    6.93605159848103  -12.79860689485735
C           1.43022430979790    4.00956557567793  -12.16772215640308
C           2.12460934736045    2.83741563702371  -12.40463199790146
S           2.78715485621859    2.15056369442360  -10.92028978374923
C           2.34439447740231    2.18310089075093  -13.65114390795648
C           3.08141046618715    1.02920685176461  -13.75479626063500
C           3.34254508901330    0.34188222607453  -14.94005837530135
C           2.71815622635704    0.77539335567650  -16.19998554758540
C           1.96560540154606    1.88904147501625  -16.33129488639309
S           1.61060416576617    2.96705484770485  -15.04554566265896
C           3.08519157932572   -0.20414157522751  -17.16202110773960
C           3.88712809272117   -1.17220558590455  -16.55874691275035
C           4.28975045715884   -2.17221448619779  -17.47135639192403
C           3.79082222363326   -1.94417386930614  -18.71437963875679
S           2.82196843306846   -0.51334648937486  -18.83276351557851
C           4.08021132965569   -0.83285928612204  -15.17208679082373
C           4.89003504955515   -1.60463143046308  -14.29716898525723
C           5.40078997689238   -1.20959162475624  -13.10663223060019
C           6.18896046942534   -2.01013359295133  -12.21762512849224
C           6.60244493626000   -3.31481583854323  -12.41465947023967
C           7.37438430068378   -4.02680558231481  -11.47566250338723
C           7.77829333281484   -3.49278760828680  -10.28295951979739
C           7.38267531214917   -2.16914238332079  -10.02002709199451
C           6.59633250207121   -1.43273125582595  -10.98031008590741
N           6.36943058114745   -0.23963524760106  -10.47057317421250
O           6.96916789095544   -0.22307689642934   -9.27927073255439
N           7.58460469633662   -1.37122142665453   -8.98706190857350
H          -4.16559652293500    9.79276773276805   -2.14837958042149
H          -3.33157378772413    9.46833699828358    0.17524760648085
H          -1.44201972085597    8.05044747966298    0.65795486571573
H           0.32256767599648    5.94236050878258   -2.99424458075818
H           2.29248988313757    5.28167663571580    1.65192384438441
H           4.84511655932535    2.17016198919048   -3.07818761655077
H           5.97733178077354    1.54972653852373   -0.81281758524806
H           3.06228387475465    3.32474673494563   -4.52464305311643
H           1.32656529636573    5.84759744760683   -4.65233774164424
H           0.64151692490284    6.44220022071593   -7.04747119828478
H           0.95639378934291    4.57611613327305  -12.94916659559262
H           3.46079782630004    0.62335103450231  -12.82811222411187
H           1.53478635740579    2.18912400592686  -17.27357167749683
H           4.91204431728240   -3.01520960144020  -17.23068378522949
H           3.93093095345047   -2.53661596401797  -19.59746741439888
H           5.13152008059692   -2.59336528168418  -14.66697789842424
H           5.24782952093077   -0.20043781306375  -12.75711523567881
H           6.33203476121703   -3.82241541364488  -13.32769572397589
H           7.65365922093402   -5.04161190017838  -11.71963374711210
H           8.36723668990775   -4.03963909066959   -9.56648738934226
