80
 SCF done       -159.946510132828          0.000304408631
C           3.87862486525493    0.99309924895151   -0.51053726940146
C           3.11546931852965    0.55393899550224    0.53662909378128
C           2.72730856888231   -0.78881487344062    0.66794769783311
C           3.08866655950547   -1.75681918492860   -0.25158847999474
C           3.88389718369728   -1.32738271379425   -1.35343795858110
C           4.27934973925298    0.05414915362183   -1.47921812507194
N           5.01974868673936    0.31430414073320   -2.55251225833291
Se          5.26104887060821   -1.15829575642194   -3.45923039688849
N           4.32077300951936   -2.11241658240375   -2.32712141604032
C           2.70012276851615   -3.13466262549685   -0.13621830520431
C           1.93808515311858   -3.71821701060069    0.85863417675974
C           1.75074432593380   -5.08467575723794    0.64671540518211
C           2.38152035940931   -5.53879364301500   -0.52515327476619
S           3.19923150019859   -4.29170460361501   -1.35606304013933
C           2.12793834542188   -6.92753368132992   -0.65454307020467
C           1.34048253690931   -7.35052589149197    0.42802345920787
C           1.07954678644219   -6.20144308380215    1.28525935160715
C           0.35530103537880   -6.18522203258579    2.44209623708291
C          -0.25394060880225   -7.34498880716113    2.96336824638448
N          -0.75236273024905   -8.28626360134066    3.38905859967187
C           0.16897354216766   -5.00553070749696    3.19164241419971
N           0.01476412481520   -4.04749087547781    3.80332493852996
C           1.03096535647767   -8.70881624740698    0.38126901036994
C           1.57370501945832   -9.32955365629265   -0.73029220376843
S           2.49002181118155   -8.20203815481835   -1.72989995795851
C           1.46805663731395  -10.69813688001749   -1.10980821354745
C           2.03945899176443  -11.18816743953181   -2.25962694127446
C           1.97453634957349  -12.51064082629352   -2.69229992637417
C           1.16241466948570  -13.49229989594738   -1.95776011874431
C           0.52680091927655  -13.23420159667162   -0.79465394544284
S           0.55766891541859  -11.71474269466570    0.00167772722834
C           1.21252424719747  -14.68298898287123   -2.73328210008683
C           2.00079833108254  -14.47110259067521   -3.86360264343947
C           2.09166486151341  -15.62444050066402   -4.67352553973516
C           1.38248691029094  -16.65799565599220   -4.14933758649888
S           0.58350530287918  -16.28073491603009   -2.65949186990505
C           2.50994886131279  -13.12350134052734   -3.84273114753447
C           3.38562665802158  -12.62309358509813   -4.83473800825138
C           4.17220038261207  -11.51678232031398   -4.76651315462096
C           5.01079640075530  -11.06651483841936   -5.81153684030316
C           5.84742654253524   -9.95965732379245   -5.77104421025574
C           6.53879981532652   -9.77637172965493   -6.96492093253609
C           6.23229033009140  -10.74775295006724   -7.93296955284207
S           5.08928064863283  -11.88631123033599   -7.36835065757549
C           6.98105325135689  -10.47741977851133   -9.10486809373387
C           7.76475827099345   -9.33133807178499   -8.87407052148192
C           7.51325114909261   -8.85126921040387   -7.52968362334213
C           8.06210456810790   -7.75990988631254   -6.91948766459480
C           9.00205568241233   -6.93351635485413   -7.56821001882592
N           9.76632633680129   -6.25773502176790   -8.09291480960790
C           7.72265014089469   -7.38213915132616   -5.60464311590493
N           7.44703420409772   -7.06674493316628   -4.53659418090572
C           8.54016869191465   -8.98078951095659   -9.97964687730984
C           8.35419612011461   -9.84105217671086  -11.04496756268555
S           7.19753262549415  -11.10996880461251  -10.67606930579293
C           8.97829628550248   -9.78761845798700  -12.33618794189364
C           9.92729442754658   -8.84014137482973  -12.67714236980811
C          10.52532830924711   -8.79790754322735  -13.94605680416045
C          10.20810341074120   -9.69216306991122  -14.93181628725387
C           9.24936655718118  -10.68155711225170  -14.64586040225880
C           8.63033778172666  -10.73476922838279  -13.34314660776787
N           7.74633221078696  -11.71019861730009  -13.19657112636065
Se          7.64077802078599  -12.62100693154630  -14.69295920015994
N           8.83131970698651  -11.62083524524383  -15.48859510647389
H           4.17876170039872    2.02275633190682   -0.61458143031542
H           2.79510559387974    1.25392202476832    1.29365504999525
H           2.12601727823503   -1.06452489334546    1.51959464821291
H           1.53758483547425   -3.17778938743329    1.69608544313933
H           0.43948298824446   -9.23158047311226    1.11127039262299
H           2.54920414615167  -10.46539057991746   -2.88034314484948
H          -0.05009417151103  -13.98041969450341   -0.27144615758903
H           2.64604830008705  -15.69215505738176   -5.59196943850411
H           1.27113911953076  -17.64740658241527   -4.54804224081179
H           3.45290809834983  -13.22639154010240   -5.73335206482826
H           4.22241395931392  -10.92714794164590   -3.86354665013127
H           5.93301196789483   -9.32992573033196   -4.90398567666474
H           9.20451595373175   -8.13705848218807  -10.00554355274138
H          10.22633143956525   -8.10391927329836  -11.94818776139865
H          11.25887897944964   -8.02946111489616  -14.13900304857260
H          10.66439015596139   -9.66266187609515  -15.90750995975176
