78
 SCF done       -163.694778662814          0.000824711465
C           2.02293558258161    0.29006008992390    3.31095950759343
C           2.60640893974247    0.19666406262142    2.07723555640049
C           2.64113235666044   -1.00742292261376    1.35594574322932
C           2.08881504567008   -2.17833345601595    1.84267696006995
C           1.47545894830685   -2.11109409109211    3.12707540259517
C           1.44436464945625   -0.86926001412739    3.86071143482130
N           0.84138990527215   -0.94874673410300    5.04274283346087
Se          0.28192310919892   -2.58206977484353    5.29754194122455
N           0.89888343724316   -3.12900617854759    3.74904276470149
C           2.11068601392223   -3.41681096555142    1.11532384212354
C           2.65388232720774   -3.65109801906858   -0.13396210235264
C           2.48759466376380   -4.97492328807855   -0.54086313944035
C           1.81077738747009   -5.75345665404786    0.41339925070892
S           1.38356819217780   -4.85673878238193    1.80245477713475
C           1.68762184733407   -7.07345570701719   -0.09670924550518
C           2.28401435136852   -7.12418853136046   -1.36698767731639
C           2.80883003515773   -5.80505094429057   -1.68798660471248
C           3.46121407397269   -5.43259856947981   -2.82695351501780
C           3.71277007703921   -6.33886629238702   -3.87802095977119
N           3.91796285330434   -7.07526137596720   -4.73278366761141
C           3.92623742765462   -4.11624506565131   -3.02665951026295
N           4.30375645369649   -3.04609212570246   -3.19211896853931
C           2.20720603815874   -8.38537397761298   -1.95611748108759
C           1.55690573300981   -9.29608845768774   -1.14387290659882
S           1.03361212584693   -8.57948613905062    0.37433354456628
C           1.29443510904985  -10.66058215469983   -1.42547878304925
C           0.65282999750407  -11.58908436106925   -0.62687345211618
C           0.57189185079021  -12.83897731623226   -1.24276819177943
C           1.15666597295212  -12.85703095092303   -2.51965362023545
S           1.80746362870721  -11.34274923678585   -2.96341345418923
C           1.02173812781756  -14.15914813411683   -3.06227064554027
C           0.35233413681142  -14.96806398754994   -2.12938090881439
C           0.04861930224787  -14.16581435114346   -0.95379143312680
C          -0.59079539804026  -14.57218811603162    0.18020438752050
C          -1.05367576530257  -15.89432942691866    0.34736386404807
N          -1.42962676624179  -16.96851346021494    0.48697347053785
C          -0.83083487852954  -13.69737720957055    1.26063221273257
N          -1.02710887974391  -12.98871346057668    2.14026124304053
C           0.16808307422737  -16.27630905591337   -2.57953413519407
C           0.69117834334068  -16.46527205358207   -3.84532193945021
S           1.42489819385783  -15.00261285384240   -4.49039795321490
C           0.69182604898430  -17.64978151645140   -4.62440688916328
C           1.21903357917643  -17.81608901976591   -5.89186548211715
C           1.04447426122905  -19.11693427896368   -6.36187294534900
C           0.37924176848658  -19.94784558742884   -5.44593620363549
S          -0.03224624398833  -19.12778153813100   -4.00513506480739
C           0.25461586196563  -21.24455667815293   -6.01234617825549
C           0.84413038692223  -21.22541204753727   -7.28784714767896
C           1.35765066990262  -19.89333194332762   -7.55255014049224
C           1.99708387808234  -19.45740078899982   -8.67623147988281
C           2.24515019263317  -20.30811602606602   -9.77330768088598
N           2.44859628468041  -20.99666326665280  -10.66750977480535
C           2.45174255559119  -18.12935589549795   -8.81396517303501
N           2.81822877109611  -17.04848980680576   -8.92540761742215
C           0.77694052894646  -22.46223325895748   -7.92930366358929
C           0.14399822274940  -23.41747243888025   -7.15630579267031
S          -0.38137288721055  -22.77763261944697   -5.61072815257751
C          -0.09740963257271  -24.79388725779510   -7.48881831805351
C           0.31797380512609  -25.36720888581596   -8.67700015566618
C           0.07743684093174  -26.71566389845410   -8.98537300664412
C          -0.58535372020177  -27.55158834709215   -8.12909833349032
C          -1.03424404414740  -27.02564906777014   -6.90316210571012
C          -0.79077038886468  -25.64153688065093   -6.57713420892030
N          -1.26020310963748  -25.26642206428782   -5.39628751409636
Se         -2.03907048486229  -26.63631324165541   -4.62538015721012
N          -1.69100546466840  -27.69995988432313   -5.96448297868019
H           1.99299039961907    1.21215471445326    3.86761120713340
H           3.05782292863809    1.07077804931342    1.63258532159107
H           3.11734188196822   -1.00760104994576    0.38849601892052
H           3.14497588949408   -2.89765974674121   -0.72114646564121
H           2.59780569912701   -8.64323915519412   -2.92424298348857
H           0.26999595596433  -11.35100146220195    0.34932534886183
H          -0.31902354715070  -17.06067592413962   -2.02844708017921
H           1.70237831772919  -17.02087683851704   -6.43070996376816
H           1.16963996376967  -22.65408585021202   -8.91042347077306
H           0.84837851295046  -24.76683611067900   -9.39877847639320
H           0.43318234171360  -27.09372044661218   -9.93200102979053
H          -0.77132364897076  -28.58724989673457   -8.36113070388219
