94
 SCF done       -186.321048278166          0.002089628651
C           0.14607653350061   -3.03309807480114    2.17427941948346
C          -1.15996871435407   -3.26432729887876    2.46654940874451
S          -1.99499896978603   -1.78103606906366    2.76491816063822
C          -0.56172773508385   -0.81921218239509    2.47900408464169
C          -0.57493756114402    0.65822207103245    2.57066840667546
C           0.48032952961131   -1.64071430510596    2.18702604211983
C           1.89665665863596   -1.47681708706073    1.83820976698377
O           2.48338516932136   -0.43359188556688    1.62955254159770
C           2.42200811221521   -2.85713895028162    1.70374119830597
C           1.31979780184651   -3.78861289427530    1.79175487124974
C           1.30594727954942   -5.14133865461853    1.53353899515360
C           0.16872388288874   -5.92955501275433    1.78570884262242
N          -0.73824207788467   -6.60992239047135    1.97481890007972
C           2.33398412154332   -5.88578362341630    0.94207724925399
N           3.10261837299963   -6.57955124333201    0.43734700004486
C           3.72476423468982   -3.26146647921475    1.50335414910925
C           4.95738543157970   -2.60910289367447    1.54445329288870
S           6.27460513355747   -3.56445569208083    0.86797958469137
C           7.47654222232847   -2.32899047690728    1.13096450308122
C           6.85445334540245   -1.24496784207049    1.76600757025497
C           5.47203540005459   -1.38755440040110    2.02996849267297
C           4.98596185079166   -0.30359385609198    2.79458989720529
C           5.95246868619863    0.62729257934866    3.04614341366544
C           5.84530219304098    1.88105044365906    3.79307000145309
O           6.74949299055870    2.67030418172006    3.92239933894674
O           4.62655156633916    2.04345972065592    4.32649959439624
C           4.43721330208260    3.24002976790126    5.06700692408002
S           7.51328394135067    0.22303840679376    2.38400814505196
C           8.81850224987170   -2.44169443239551    0.77902508131130
C           9.42345821752838   -3.57830020612084    0.27220127878531
C          10.77640746268764   -3.74835838729402   -0.09612766472013
C          11.09015692596587   -5.01309815554571   -0.51944558317079
C           9.99946423199881   -5.89745424527220   -0.49191540125304
S           8.55497205717465   -5.07141172533700    0.04759397663145
C           9.88846204961794   -7.25411699469316   -0.77917746358826
C          10.78829447313822   -8.18455311242394   -1.33013627319198
C          10.26088426128640   -9.44087480621607   -1.46841668697150
C           8.92677602960060   -9.56875737820169   -1.01725977005736
S           8.37006713403720   -8.02186405132573   -0.41246230606384
C           8.09837620524541  -10.67063955484048   -1.10416666369914
C           6.79026322771275  -10.70799223290177   -0.60121165588287
C           6.22042057821835   -9.87227556235155    0.36316255304085
C           4.86156202572605  -10.06528656567055    0.49494870628983
C           4.34951590232309  -11.07821219411344   -0.34738209027097
S           5.58815362038247  -11.81946241335262   -1.27115858391551
C           2.94753835151639  -11.08897762544308   -0.21641074485499
C           2.57080592040409  -10.07686371802253    0.70202269919398
C           3.76225773454389   -9.44906821815724    1.22247647062876
C           3.86194237160934   -8.47375825494220    2.17159143962283
C           5.08991762975380   -7.86856790451240    2.51251438608996
N           6.07235502839073   -7.35042821911007    2.79698657527466
C           2.76242928171283   -7.99146210908042    2.91051053418548
N           1.90604966425944   -7.57903391432338    3.55298899127788
C           1.19736360526314   -9.86427167079634    0.73704388864949
C           0.51313110295249  -10.72708502721219   -0.10248340392269
S           1.59415542707202  -11.85054893248888   -0.92161356685821
C          -0.88307724224362  -10.77991770540580   -0.34077012126600
C          -1.74082602585815   -9.72437240878793   -0.35213382088571
C          -3.20839682438875   -9.96215588101737   -0.18032414441575
O          -3.77186680727004  -11.03321454909652   -0.21551229293688
C          -3.76659978101343   -8.63431605367055    0.07791059704508
C          -4.98508176470212   -8.12641590563313    0.40761614594132
S          -4.86547618239172   -6.38955290921031    0.55649356893986
C          -3.18759588793339   -6.38174363229737    0.15452644813046
C          -2.73729510762258   -7.64448803388992   -0.06445835667076
C          -1.50046989528340   -8.29482697155400   -0.44201825333828
C          -0.42796112746191   -7.64985983538240   -1.00368052936766
C          -0.38203982091764   -6.24592786066614   -1.09650323509929
N          -0.30978623571485   -5.10121834492114   -1.16143920531505
C           0.67718117600387   -8.27813271199810   -1.60628044754151
N           1.56722255690287   -8.73569094300763   -2.16965593180091
C          -6.25916198451228   -8.84757973305173    0.62249192436426
H          -1.69407470816505   -4.19032420095393    2.53916250997068
H          -0.84197056041632    0.97984673137810    3.57722823183084
H          -1.30551780691785    1.07990225810176    1.88118518135040
H           0.41367199006898    1.03730127933443    2.32132559777434
H           3.83477990466142   -4.31085223421447    1.24810558022959
H           3.97800651830573   -0.18794141105183    3.13921249206690
H           4.52815627806671    4.10933514135099    4.41260227390350
H           5.18446414629430    3.31815017893382    5.85945759226950
H           3.43662987606887    3.18112097883595    5.48671027356568
H           9.43413353327790   -1.56663783190061    0.94033859965938
H          11.48142046068918   -2.93842892212633   -0.03278856325888
H          12.07334110259780   -5.32335142860292   -0.82561870232145
H          11.78389405874007   -7.90968893431816   -1.62982585280251
H          10.79586477721979  -10.27746973425492   -1.88260307043250
H           8.45418718492663  -11.52604310769446   -1.66206933036805
H           6.78605341372599   -9.18455956349531    0.96193679639005
H           0.70196837541943   -9.12917777947499    1.34802407210188
H          -1.32918682483030  -11.75846619454244   -0.48723698439068
H          -2.65603299200440   -5.45212901389978    0.12698381072958
H          -6.09363281023245   -9.91352343149139    0.48280844683915
H          -7.01712181919244   -8.50681395178387   -0.08228517987028
H          -6.63670861777259   -8.67037359355614    1.62910536239937
