96
 SCF done       -190.598156590147          0.000811519418
C           0.08153510001104   -1.64108104760656    3.19471576594417
C          -1.15867796146086   -1.46301787263113    3.72239987588025
S          -1.16657116228417   -0.15056727287552    4.84539975908827
C           0.53507044519435    0.17287425016144    4.61374617165908
C           1.23216614109302    1.27029332222344    5.31876703218222
C           1.03979572417062   -0.70626166539430    3.70635721298215
C           2.34885019072258   -0.96119338844606    3.10521627344494
O           3.40913057156300   -0.44426716055913    3.39134929612788
C           2.11933828439179   -2.08762417115553    2.15274285498801
C           0.73473734456985   -2.50930637263475    2.23733338694512
C           0.10512771767076   -3.49305999187701    1.51584161836933
C          -1.26490581915037   -3.76784989898143    1.69885927202173
N          -2.37902971147244   -4.00507335954330    1.84045605436153
C           0.71009640311267   -4.30536437209199    0.53934798550876
N           1.14766839781931   -4.98741403483735   -0.27544530970237
C           3.10880929752001   -2.73321289109904    1.45866787278504
C           4.39982689835795   -2.23689968376984    1.20555301949090
S           5.71688838337118   -3.36073982068296    0.96943628557099
C           6.89908984550015   -2.09630211142558    0.77000421659780
C           6.26383852137836   -0.85975735372839    0.82234206391286
C           4.86419400349978   -0.92726879217157    1.04814649709894
C           4.25197240351353    0.34470547064512    0.96211738391146
C           5.15415085168514    1.33757445959231    0.72260955143891
C           4.84035500105143    2.75737187105360    0.55099343678063
O           3.74293644848346    3.23244627231855    0.69947713090133
O           5.92003122567361    3.45922924293034    0.17269299169134
C           5.71622837869545    4.84970788930266   -0.01427784842126
S           6.79610939233006    0.77516569011345    0.58614614611974
C           8.27765761452200   -2.38606666491847    0.59282500026545
C           9.23559441450521   -1.39796343109943    0.64734304911220
C          10.59670493198146   -1.59993881015438    0.47433058743129
C          11.14855535176964   -2.92513216394099    0.19252695566196
C          10.39574103262841   -4.04580731787500    0.11267604685581
S           8.69073356742333   -4.07171312863404    0.31242733695219
C          12.55070838275305   -2.72123966802277    0.06328294098808
C          12.86296416454373   -1.37064945611630    0.25806001573423
C          14.25113944415492   -1.13444161970955    0.14295740643167
C          14.93514137185785   -2.27657463938084   -0.12920030102282
S          13.93592857079240   -3.68304491065551   -0.25619646844982
C          11.64582890321529   -0.65073966504029    0.52491144466389
C          11.42464974943933    0.70672555824543    0.81620395945494
C          12.32691049425249    1.72646775147788    0.88368224717278
C          11.93776249326768    3.04126252187200    1.22538692089690
C          10.67394132292234    3.48914630420694    1.60433021818344
C          10.65516331265932    4.84796317204158    1.87016651221087
C          11.90671806062067    5.47219229869211    1.69358723240487
S          13.10948431177417    4.35236840712607    1.20983392137734
C          11.76360786289398    6.84697754654189    1.97691722200168
C          10.41274237034110    7.09666956639697    2.31925716025103
C           9.68320217509978    5.84809968520793    2.28742449218283
C           8.37966102820530    5.63568702000866    2.63423431032409
C           7.81352421653767    4.34499112576687    2.66753623750493
N           7.35969740385923    3.29241142861155    2.71292352877904
C           7.52898192170029    6.69935450608461    2.99833335840297
N           6.83442132245644    7.57160093173309    3.26735707550303
C          10.17524549078400    8.41940576570506    2.66376373575618
C          11.32217829181298    9.19763345399801    2.59891348502148
S          12.71567182678732    8.25578318838463    2.05670663443397
C          11.48418560444838   10.57262334708765    2.85439927580906
C          10.67243719458930   11.42546920107183    3.54505375184277
C          10.83839433334268   12.89362892303748    3.31016494194945
O          11.74774528184840   13.42604838425991    2.71230824778027
C           9.65160001291036   13.50308567527801    3.91045183846814
C           9.12098131074087   14.75318299635134    3.99470154971109
S           7.62336985755298   14.68748497795479    4.89117646926777
C           7.75034580973983   12.98378218121169    5.14656530136098
C           8.87622787517112   12.49102112208365    4.56774477310512
C           9.56544138417415   11.21879851501357    4.45761099555530
C           9.31318843848110   10.14452183231868    5.27454656769252
C           8.23741996017236   10.15427806674327    6.18609222801333
N           7.36687585682439   10.14836430674117    6.93363140816577
C          10.11403166037844    8.99430280999303    5.36931303727876
N          10.75525660490355    8.04992937135373    5.50090270604349
C           9.65596659211996   16.02066324295879    3.44983702341791
H          -2.06600887242349   -2.00331256047303    3.54042663223881
H           1.10026050297575    1.18386777987650    6.39668914884253
H           0.83356815012330    2.23712917983236    5.01051818055261
H           2.29244406865170    1.23196180528323    5.07836892597292
H           2.91427759807782   -3.73476838607338    1.09428536043790
H           3.19897985058239    0.53712999134239    1.03940982041740
H           6.64721810390403    5.24428877892796   -0.41419195766841
H           5.47073402146999    5.32986448875855    0.93590697714698
H           4.89486371741252    5.02084406149489   -0.71328733545411
H           8.88234036129814   -0.39925310395303    0.85293304433009
H          10.81841353738992   -5.01886908130046   -0.08184421409077
H          14.73281023183842   -0.18065805254517    0.25296995529857
H          15.99271243419862   -2.38927795536406   -0.26732114832995
H          10.39243331540576    0.95616429884000    1.01413589121146
H          13.37147075522191    1.55984105991935    0.67143959967842
H           9.81544266176181    2.84964702973273    1.68646976379558
H           9.20793363820917    8.82128857420067    2.90521722190901
H          12.34367557737437   11.04768455187484    2.39026274936883
H           6.98058939152899   12.47580720007446    5.69209106498121
H          10.59872777576402   15.82229535192395    2.94498554791590
H           9.82084203506670   16.74313565321552    4.24862670246244
H           8.95451964462204   16.46170841937589    2.74199968923351
