85
 SCF done       -173.089317071495          0.000869178704
C           2.69330861116250   -0.43519851230521   -0.32908008024516
C           1.99311390952397    0.70100309214226   -0.07588752145833
S           1.27851388309247    1.31727370130689   -1.52519348736710
C           1.92154509083787    0.01791932818984   -2.49946113914959
C           1.69450942936110   -0.05180736815363   -3.96001555681446
C           2.63926463689197   -0.82372016391346   -1.70634155423357
C           3.39839506944231   -2.05681971510037   -1.89962250909132
O           3.46103462322882   -2.70598529546888   -2.93030090514933
C           4.05631834392220   -2.31794599935575   -0.59437946558170
C           3.52452517992996   -1.38161827159160    0.38499648923815
C           3.70633438481539   -1.38755217601552    1.74452417514045
C           3.10462027391986   -0.40750440217345    2.55954319714353
N           2.62159202899973    0.38810336993866    3.23087617451129
C           4.43896985294323   -2.34428040100491    2.47264317936944
N           5.00380874519523   -3.10347083885026    3.12396286725542
C           5.14920192563355   -3.10911165028321   -0.33347632953792
C           5.81139510592499   -4.07110023009657   -1.12785827549139
C           5.27164206536177   -4.75572352584006   -2.20077984037592
C           5.94913405190148   -5.66865757897124   -2.99180831232165
C           7.32825522746701   -6.06558814779071   -2.67532407271292
C           8.04399208658177   -5.57061725985811   -1.63896676277251
S           7.45777604868802   -4.38092673734136   -0.55994578307507
C           7.67277432637264   -7.05595946749646   -3.63235135824593
C           6.59296651992670   -7.27285069926281   -4.49247805250865
C           6.88053084995808   -8.25071157000301   -5.47162241392660
C           8.13885005634357   -8.74020636833549   -5.33030949377447
S           9.02580971753324   -8.04078197084877   -4.01457873794803
C           5.50727435800964   -6.40829780541107   -4.12264168475338
C           4.28518693508906   -6.39381099672636   -4.82324074007400
C           3.25740305984630   -5.50283268183552   -4.70687484073735
C           2.03566009782154   -5.62261285675854   -5.38778881427075
S           1.69880765169830   -6.86335002189295   -6.56872573717102
C           0.05525935053955   -6.32295566920646   -6.81536969606069
C          -0.20198953922450   -5.23020123469463   -6.00736168989064
C           0.89861802921973   -4.82806717661128   -5.20310445025052
C           0.56943278285987   -3.75752354336104   -4.34312723626712
C          -0.72791617818710   -3.36373681130380   -4.49272343033210
C          -1.48065868784268   -2.35165528284161   -3.75521882978119
O          -2.59721391251071   -1.99519360877960   -4.03950770461019
O          -0.79135610293430   -1.88008282624605   -2.69875865355027
C          -1.48075629581038   -0.93837346029882   -1.88843804513076
S          -1.60862313420272   -4.26295577321977   -5.71464407799768
C          -0.81314514521246   -6.99955395519917   -7.70468706170227
S          -0.29302322877605   -8.44982094521680   -8.53139026198638
C          -1.83552693135109   -8.65578687542943   -9.31974398750832
C          -2.68511109210823   -7.60948295745814   -8.93683127228398
C          -2.10660825313689   -6.69317605873597   -8.03359623122125
N          -4.00762597535131   -7.41945904731357   -9.36678176018737
O          -4.48186374130400   -8.21337452233744  -10.17443161571229
O          -4.62468663316114   -6.47303637700293   -8.92162728194298
C          -1.99037071300439   -9.78812517026780  -10.15268135306750
C          -0.98130569044356  -10.73178818978336  -10.34659236463600
C          -1.37616017687972  -11.76194698530390  -11.18336740241413
C          -2.69961937624348  -11.60624481542755  -11.63791093525560
S          -3.45231698310729  -10.20012580773737  -11.04189879880587
C          -3.00333032456041  -12.71596319102503  -12.47619013301383
C          -1.88418440807886  -13.55714610085923  -12.54624875004357
C          -0.82153619490466  -12.99015753869958  -11.73953087102484
C           0.43095979374684  -13.49212562589192  -11.53562435179295
C           1.37650679281818  -12.83682508710850  -10.71991718840233
N           2.14811294582254  -12.30664978328057  -10.05723634374578
C           0.86343436603262  -14.69841985055961  -12.12489031671327
N           1.22036953274385  -15.67873305816310  -12.60081724993512
C          -2.10854025488087  -14.68504043789326  -13.35794983883753
C          -3.36805098394300  -14.67682371440963  -13.87694126086734
S          -4.31279199570628  -13.30637940248504  -13.39765026098103
H           1.85176413830900    1.23036169854105    0.84494783351394
H           1.99042048548688    0.88051935896273   -4.43942640961817
H           0.64123023312049   -0.21998024392100   -4.18026442396827
H           2.27460922321702   -0.87248830198190   -4.37559577594021
H           5.64317125403016   -2.91905056979221    0.61392305484522
H           4.23324633550690   -4.56276918131767   -2.40213414004710
H           9.05057025343416   -5.89569745761019   -1.42670008312513
H           6.20033764700821   -8.57777388682316   -6.23671023927555
H           8.62342884839558   -9.48796698117413   -5.92709722405724
H           4.16184267653056   -7.19536822432341   -5.54415523512887
H           3.33878265575073   -4.62918701075106   -4.08151818146222
H           1.25191243348436   -3.30184967580159   -3.64994254262714
H          -0.93928508518674   -0.88808862875252   -0.94739931785011
H          -2.50931776163608   -1.26335391904565   -1.72385185978194
H          -1.49603001946331    0.04137744662426   -2.37077365098968
H          -2.64677282555282   -5.84510395986133   -7.65484292853312
H          -0.01405580239887  -10.64913259227943   -9.88327570229616
H          -1.38766651119395  -15.45858783676052  -13.54987796322271
H          -3.81356396707830  -15.40464592866307  -14.52535711823349
