106
 SCF done       -195.263598792350          0.011053963157
C           8.50711669949098    4.10740175831815    3.08983749379456
C           7.57132899655677    4.58346320676316    2.22402997881275
S           6.52194248370158    3.31864631074656    1.69809143069209
C           7.33219518386478    2.12125707635227    2.67336414470735
C           6.91365452829271    0.70024836084644    2.68539977928253
C           8.36383489605906    2.70402996384719    3.34404726342950
C           9.38912701657242    2.27262799393639    4.29352328473859
O           9.43201772817146    1.23358248690694    4.92063878326338
C          10.29683709272959    3.45725462237623    4.43375749841205
C           9.64414236187156    4.61222020622034    3.83131708910901
C          10.00871826290907    5.93092344448888    3.90195771230219
C           9.25634449481739    6.92922935084264    3.24875880420877
N           8.64759367167958    7.75133882866944    2.72853262996035
C          11.10101529188556    6.44240278991230    4.62805092023333
N          11.97464859390543    6.91564368852892    5.20379516225312
C          11.53087552516458    3.44206132888337    5.00865971855837
C          12.28818815976919    2.28377647451265    5.33844568953965
C          13.11224852188146    2.15189415026097    6.42701029409689
C          13.55519689167023    0.78661259924115    6.49969949785576
C          14.42100657994198    0.27372556642571    7.47363934820659
N          15.12395753727981   -0.14879025443834    8.27750924202265
C          12.98845111859485    0.07180051822358    5.46141078781140
C          12.22009691766002    0.96779340675643    4.67189364281860
C          11.61282682368199    0.71466799167401    3.45547394087768
C          10.96455937781629   -0.54305740424979    3.04693443986946
C          10.35998785111543   -0.31119505426255    1.82240432813435
C          10.63278782755468    1.03207171345664    1.42887347694142
C          11.37497630013319    1.65662829833942    2.41709969733042
C          10.13884825562535    1.63685347475493    0.26496699851484
N           9.69670516519433    2.14288718325601   -0.66653077533997
C          10.81921460194367   -1.67052469655515    3.87177525345115
C          10.30631878825721   -2.86328563431739    3.44213097660699
C          10.13893661148386   -4.01516482480999    4.23414418624039
C           9.73998465632229   -5.21157913641719    3.63861088963814
C           9.58917693281647   -6.42153611892038    4.27766021282784
C           9.76615671748822   -6.51702825045433    5.72698924738647
C          10.13615003035748   -5.48571644389091    6.51959987519260
S          10.46119836384407   -3.90084397062069    5.95050258913276
C           9.48865448593388   -7.87421940546518    6.06439152231678
C           9.19622098140124   -8.59715029573703    4.90914139467094
C           8.91905180369080   -9.95360502484325    5.18729803362009
C           9.00602046762292  -10.21574584621155    6.51783127997626
S           9.43032689264624   -8.83825140225631    7.47971849782601
C           9.26978841265294   -7.72787676137968    3.76161807591436
C           9.16147532623989   -8.20826411072050    2.45871806730256
C           9.26496373475933   -7.49137862811879    1.28092015070219
C           9.32313443180822   -8.04110083507792    0.00122655897585
C           9.11690644286687   -9.36224967715129   -0.39359842069949
C           9.15236614405047   -9.41393829861342   -1.80517957696973
C           8.98732544739591  -10.58869138194285   -2.55554282585915
N           8.83168235076375  -11.55951917558862   -3.15025678844709
C           9.36491596313443   -8.13137264987403   -2.32075193374301
C           9.51425514791121   -7.24058628894492   -1.24247092368866
C           9.85305917480060   -5.89545647311857   -1.34028566322095
C           9.67259929137466   -5.06818534990972   -2.54452866602860
C          10.24026682850140   -3.84509872362136   -2.30375221489809
C          10.77808117655833   -3.85119477821816   -0.96998761215810
C          10.54086050803149   -5.08827914367025   -0.39601845210582
C          11.39586346378149   -2.77311164652704   -0.33758916347198
N          11.87761550497553   -1.88919925981821    0.22130647442435
C           8.91767862152233   -5.44263902584907   -3.69967934184603
C           9.25060188885801   -5.08245620031486   -4.95942130561605
C           8.50233625594855   -5.43749202685705   -6.11252206412469
C           8.98794246365287   -5.51096467365700   -7.38204088653410
C           8.07575150055050   -5.46205476055545   -8.56567746174744
O           6.86910083092100   -5.56200983678808   -8.55178281918106
C           8.96713775191491   -5.20586608639716   -9.70231173417996
C           8.82257222404544   -4.98286816683626  -11.03675765433186
S          10.39825360401762   -4.75572961325771  -11.76301469737984
C          11.21974678197968   -4.97591422721980  -10.26092529439086
C          10.33280131565307   -5.20440977701104   -9.25570407384246
C          10.36331134815169   -5.51562008368095   -7.84178861336124
C          11.47184301928462   -5.95078660524527   -7.15474860867440
C          12.75487999938341   -5.93238933139234   -7.74215846315028
N          13.80526552407518   -5.90058359608757   -8.20640739425501
C          11.43198384149042   -6.56411803168036   -5.88875024414466
N          11.42758770893076   -7.12594944078868   -4.88776524648902
C           7.57888252120026   -4.93250780001144  -11.83593849936388
H           7.42474613372409    5.57677539366219    1.84928810131245
H           6.96532700334917    0.27945097303787    1.68085312909977
H           5.88531670494711    0.60714241622012    3.03455108872791
H           7.56888570826782    0.13905529147449    3.34941689255901
H          12.00655825463829    4.38795683523642    5.24047532876930
H          13.34075907630944    2.90967659999151    7.15316633215330
H          13.22315676528506   -0.94498035387533    5.20738507370839
H           9.71721204485023   -0.97702114694526    1.28182929395151
H          11.78591863175085    2.64718444966806    2.36007704773959
H          11.12654965176228   -1.57439833243776    4.90349124323852
H          10.04810423511394   -2.96555933319446    2.39708850975105
H           9.55078372315181   -5.13455205412383    2.58015673096728
H          10.26736067371338   -5.59560027819874    7.58436337533757
H           8.66338431858868  -10.69804665472007    4.45518769046307
H           8.84413613697473  -11.15272817730665    7.01316196094253
H           9.03457532653156   -9.28093148924470    2.37620418654794
H           9.31118164735627   -6.41418434352329    1.32969020351365
H           8.92966218212690  -10.20784156450251    0.24322340080273
H           9.53117759792548   -7.89941999526911   -3.35556060787604
H          10.24158758783801   -2.99022680532945   -2.95552302890302
H          10.94551102025978   -5.40885491362948    0.54557358946581
H           8.06861148527282   -6.09058240545255   -3.54356050559997
H          10.16270990074413   -4.52451676241242   -5.11369302174599
H           7.43979221283716   -5.60041566125375   -5.99700032850079
H          12.28856876905026   -4.91757260013976  -10.23172737551569
H           6.72653511629247   -5.12282360369042  -11.18659135144710
H           7.60196383293523   -5.68100771121702  -12.62816340643423
H           7.46232622316791   -3.95581434829646  -12.30501248478978
