95
 SCF done       -209.445680209799          0.000313656297
C           4.24944510276379    0.97589361271103   -5.79940443756225
C           4.77072672849786    0.78782146500678   -4.58782386293287
C           6.17169465901436    0.56167161491435   -4.35533675882737
C           6.78802053330772    0.16815657231711   -3.06485021448535
C           6.12321938298561   -0.25256252736431   -1.85898232405435
C           6.70420261602851    0.02895670267548   -0.63013971452914
C           6.12700779410355   -0.34506237038993    0.58156058961767
C           4.94228003032761   -1.06140650053199    0.62999680828116
C           4.33201514794075   -1.47011882234957    1.81666151800372
C           3.76233651717853   -1.87090674811999    2.80922739053992
C           3.06444605349198   -2.39308702875596    3.89064532120523
C           3.35472037556011   -2.40981845923428    5.25265857616262
C           2.32849732001879   -3.10133353281389    5.88457089882684
C           1.41728312384233   -3.50693314217985    4.90844831897006
C           0.22632609151032   -4.30793753252654    5.00396635108036
C          -0.53104689027141   -4.41410258122283    6.13441789058996
C          -1.56430476345235   -5.44053532897946    6.30977403005151
C          -2.68955136431236   -5.24162581689722    7.02537634782292
C          -3.13858917506113   -3.97421762971541    7.58961082633951
C          -3.18667267187274   -2.81604249139295    6.81290104706433
C          -3.57787309447947   -1.61267335861089    7.36670320744002
C          -3.93218217956875   -1.54302565498337    8.71214632940699
C          -4.36295963424083   -0.27358628640058    9.37222480712337
O          -5.10431681678559   -0.25664704338407   10.31484834239514
O          -3.86757683453090    0.86581092231026    8.86205375667121
C          -3.93884500011047   -2.70920579010832    9.47621833505721
C          -3.55329462119325   -3.91104354903847    8.92161234901615
C          -1.29190066835818   -6.76869932116676    5.73162789213654
C          -2.29960709221259   -7.46657517233357    5.06797005816767
C          -2.04570139368670   -8.69902566942348    4.49770094518332
C          -0.77331098890726   -9.25935108803804    4.58171754112918
C          -0.41536703102327  -10.56501900061194    3.94899313822714
O           0.70136279548698  -10.82447211780436    3.59894520842622
O          -1.41459229874963  -11.44914044470817    3.79088324411790
C           0.23384785648519   -8.56651152116255    5.25131726378969
C          -0.02287792633432   -7.33970451342254    5.82554605435994
C          -0.31726525974070   -3.51594150385164    7.28109361843228
C          -0.35922951461611   -2.12728980004975    7.14292790920688
F          -0.50852025106381   -1.58850991089246    5.92786227717858
C          -0.30368557503168   -1.28154926902194    8.24015575763342
F          -0.42790976409665    0.03888443556899    8.06975536680089
C          -0.17017590430758   -1.80827646999136    9.52222426928865
F          -0.12723973413185   -0.99999316487757   10.57764946576591
C          -0.09523652706705   -3.18799854505987    9.68571898457642
F           0.03501526159478   -3.71004251588344   10.90430096125837
C          -0.17817756843636   -4.01940913140658    8.57485287301664
F          -0.11485700330320   -5.34184350342590    8.76024310077808
C          -0.12646500321629   -5.07822234088507    3.79066783648476
C          -1.40306298513292   -5.02607061257741    3.23354343388501
F          -2.33375668295698   -4.24166703771867    3.78584752286055
C          -1.74202439873306   -5.76515049781385    2.10668099644565
F          -2.97972455368602   -5.70316328469344    1.61415152153540
C          -0.78944513860695   -6.57715973184076    1.49849162196894
F          -1.11090741976189   -7.29266817164615    0.42454891316987
C           0.49934173658926   -6.63541672241123    2.02341724690350
F           1.42060187408779   -7.39904471829129    1.44557064738386
C           0.81438472324116   -5.89072142146354    3.15414783644422
F           2.04671135474841   -5.98361008035790    3.65912101295050
N           1.89469453181269   -3.06628976920473    3.71004820223079
C           4.33572229751384   -1.42867450877015   -0.60625078882414
N           3.24299301762603   -2.17111427283085   -0.72404979246122
Se          2.91075318818497   -2.42798908541787   -2.42467071802982
N           4.29091426536153   -1.48464426892156   -2.92579236065560
C           4.92607495868413   -1.02154651697114   -1.85735918368290
N           8.10910174666656    0.21311992296111   -3.08664889825165
C           8.44655217515995    0.56157375612393   -4.34513301153582
C           9.55696619040477    0.81063417574025   -5.10650988790323
N          10.91144866571967    0.85574763458057   -5.02192561229769
C          11.31476646460070    1.23534307558417   -6.20765549883919
C          10.24084315889625    1.46926052692080   -7.15480324699657
C           9.10755085643405    1.18963066818599   -6.46389085859909
C           7.63418315912043    1.16302139794276   -6.54315178059856
O           6.92754398055836    1.39779655088783   -7.49855009058016
C           7.24477356255047    0.77123721061172   -5.17706383471045
H           3.19813773739438    1.16642911012709   -5.93177636811224
H           4.85720450732249    0.94553479213559   -6.68789402059616
H           4.14109717416051    0.82347070232335   -3.70988833166907
H           7.63359112068310    0.57699104738240   -0.63261836399623
H           6.61233777098733   -0.07618739249582    1.50756631775700
H           4.21959346122777   -1.97765761604774    5.71396577935778
H           2.27364990875867   -3.32583879654638    6.93105654077443
H          -3.32120784281878   -6.09542193765822    7.23221586949863
H          -2.93570096153572   -2.86980074258407    5.76517318899221
H          -3.63242472376934   -0.73920594033702    6.73066306005535
H          -3.22561651028180    0.72387346839696    8.15344747492734
H          -4.25231215848639   -2.64631192406139   10.50691121787412
H          -3.54901832809966   -4.80865846394262    9.52192833891422
H          -3.28142184101523   -7.02556508996674    4.97783044565906
H          -2.83966587780938   -9.19486288090890    3.95461188135496
H          -2.25152926324519  -11.14288242786048    4.16409605635371
H           1.21526347592000   -9.01138137202552    5.30780405377406
H           0.75993295182542   -6.81907647846583    6.35560414117514
H           1.44640524104981   -3.17904867979776    2.81516739070031
H          12.36523416193881    1.34819278589697   -6.41351624344375
H          10.36411443454274    1.78999548889170   -8.17025130960768
