109
 SCF done       -266.668160724795          0.000491749615
C           2.79163702352739   -0.54070982769822    2.31133533008987
C           1.45453179790252   -1.11412780542992    2.45604473289350
C           1.28236767855063   -2.49742999743309    2.51097220433489
C           0.01713025656156   -3.04903599416652    2.56727574368616
C          -1.10442453415192   -2.22404480698750    2.57128847649267
C          -0.93315102546241   -0.84042121583569    2.58741804932840
C           0.33086065618968   -0.29013121462753    2.53645027300572
C          -2.49977363813760   -2.76137619857988    2.60465271720460
O          -3.41187212340859   -2.14851186524986    3.08738971919625
O          -2.69107995860891   -3.96800291292009    2.05371892075457
C           3.66500959653993   -0.88678305852857    1.34786046984914
C           5.03378686885740   -0.34858109121727    1.32162521866944
C           5.77414362835179   -0.24011073700879    2.49888359011005
C           7.07505083168577    0.21579402192995    2.46472751026407
C           7.65886371436084    0.60184534753965    1.25948341678725
C           6.91743478474760    0.50980680326007    0.08391684445691
C           5.62281280870433    0.03112593466473    0.11637980212758
C           9.07852118541267    1.06680372250488    1.29579287985483
O           9.84172696878583    0.73408898440023    2.15874184332376
O           9.46558597470138    1.89298269561083    0.31017923436432
C           3.28192620437428   -1.79111183858122    0.24941542152875
C           1.92865401137331   -1.57510326175698   -0.30388038023625
C           0.98506819378363   -2.59602267390212   -0.41998110394730
C          -0.31743671641836   -2.34691822927957   -0.82969079728511
C          -0.70471652743581   -1.05482807781766   -1.17438325756163
C           0.22459251289825   -0.02273629503819   -1.09786767942347
C           1.51571484907453   -0.29063333272405   -0.65870846797030
F           2.38849956520734    0.72111565333662   -0.59261506685350
F          -0.12444907977399    1.21928184491975   -1.43034986361364
F          -1.95107860770106   -0.81095188251181   -1.56723457966691
F          -1.20998527692342   -3.33643259600941   -0.86190600434397
F           1.31891179687463   -3.84840992870041   -0.08941029905702
C           4.11180196414881   -2.73647571179398   -0.24765271065312
C           5.42891037690194   -3.02655886819604    0.34949795219755
C           5.59928214580052   -3.33741155742714    1.69581477324369
C           6.84937491428020   -3.63152091235779    2.22528311782507
C           7.97251482713483   -3.61637053363747    1.40351827056220
C           7.82752629631776   -3.30918698361036    0.05328296151401
C           6.56657589175621   -3.02826364826476   -0.45619261082423
F           6.44832170522761   -2.70984512914791   -1.74989426124640
F           8.89470981949720   -3.27950392569022   -0.74388033492971
F           9.17155881462841   -3.89702998130477    1.90257015604863
F           6.97288802333832   -3.92370126240227    3.51990289029400
F           4.53885110966987   -3.37393221700850    2.50658125207707
C           3.73862752054030   -3.59012187560431   -1.37680980579880
C           3.14605266525727   -3.12845417487264   -2.52852767233417
C           2.66446808859985   -3.99915363454683   -3.51570927957440
C           2.70296181174449   -5.36812398457505   -3.37343287294283
C           3.36548279785651   -5.88703186577486   -2.23098042805840
C           3.92027659096484   -4.99156168547319   -1.24930521895859
N           4.53678202994910   -5.59676888443130   -0.24075899130256
Se          4.47146393542086   -7.32579209253526   -0.48284647291900
N           3.56393888731460   -7.17198669242439   -1.96294911935066
C           2.10798569956586   -6.24957680714452   -4.38363956262601
C           2.44717719732724   -5.92306194004582   -5.77665352304995
C           1.49407456466119   -5.90306223964060   -6.79438963528868
C           1.83688316467677   -5.66022035459125   -8.11856170999648
C           3.16262579786524   -5.40974473233058   -8.45448417402373
C           4.12884998548508   -5.38614422536879   -7.45184936756357
C           3.76744268584600   -5.63219815969253   -6.13402062923264
F           4.71903338948348   -5.61249830904878   -5.20135857111677
F           5.39867419151730   -5.12610339518142   -7.76285404759193
F           3.50257615499878   -5.18296304604956   -9.72259784954158
F           0.89420973785302   -5.66488122694808   -9.06480073051475
F           0.19841220166347   -6.09492392222272   -6.50225011225944
C           1.31473068785456   -7.30382594127272   -4.07099514034946
C           0.91947544510712   -7.56377590834036   -2.67545610156750
C           0.37121923226505   -6.57376489539485   -1.85683624718101
C           0.03706492550598   -6.81965307190000   -0.53117935219592
C           0.25303031635992   -8.08101166702792    0.01475559153507
C           0.77628415913324   -9.09228561790029   -0.78474015188736
C           1.09047926567013   -8.83083541268626   -2.11332883792826
F           1.58829829560433   -9.82512403022080   -2.84851220485449
F           0.97747424805870  -10.30747734963889   -0.27396028745359
F          -0.04522025106725   -8.31483629779120    1.29211375566876
F          -0.49491687363980   -5.86096858366661    0.23394082427194
F           0.12975604798940   -5.35805364738586   -2.36187326666113
C           0.91495428512058   -8.32104667947005   -5.05200931798987
C          -0.36775766049204   -8.77122959062992   -5.13250036367910
O          -0.75479156841345   -9.75562760824338   -5.94752750161419
C           0.15671638048592  -10.38733303334754   -6.72862782314565
C          -0.28955859034268  -11.44039594913499   -7.52654627502011
C           0.60517288895407  -12.09645854691738   -8.34337322747592
C           1.94476129901042  -11.71482547131151   -8.37901760591093
C           2.38521080458690  -10.67353017390073   -7.59561381741221
C           1.49667455743949   -9.99503298483098   -6.75594494648324
C           1.95812803314163   -8.87650126337715   -5.92844052555644
O           3.09678843571997   -8.44173873756136   -5.97968273810942
C          -1.52069307100589   -8.19382938972868   -4.37463508838735
H           3.07283181194078    0.21862382330878    3.02804168291535
H           2.14789535373055   -3.14010405499793    2.51615527639923
H          -0.08292090449950   -4.12403871194234    2.62436162146392
H          -1.81106530680772   -0.21447953713951    2.63579650809097
H           0.45623409070525    0.78254406686757    2.53235819318798
H          -1.90414076029342   -4.33176691101176    1.62372084423018
H           5.33329080071717   -0.54520949867892    3.43584745401809
H           7.66602987333210    0.28170704150218    3.36535517586408
H           7.34940466460697    0.77101480102424   -0.87306536682021
H           5.05794076924384   -0.03777581275519   -0.80067225733184
H           8.74629060553640    2.12215888956121   -0.29301554141955
H           3.04634011581380   -2.06517891804832   -2.68519023030121
H           2.19776226231878   -3.57491762103400   -4.39236752795769
H          -1.33024987033469  -11.71992927716062   -7.48703282376388
H           0.26306287937899  -12.91276439879900   -8.96072861225352
H           2.63434227526214  -12.23791566889788   -9.02297478752545
H           3.41570706998175  -10.35297506224890   -7.60001837785244
H          -1.62694828667377   -8.67975264168426   -3.40513247171820
H          -2.43248161800549   -8.37049228489930   -4.94012539624801
H          -1.39081552674599   -7.12643255810620   -4.22582929412420
