117
 SCF done       -231.100902927567          0.000963588746
C           0.50016637753116   -4.96058497491614   -3.95969933487069
O           1.24391040845751   -5.65134849800299   -4.62086471963516
N          -0.82113953690828   -4.77880851824223   -4.29044244864254
C          -1.36179497521597   -5.49380763945193   -5.43542979721932
C          -1.72355415996458   -3.98556524154357   -3.59725552434558
O          -2.88422405296628   -3.94038106979158   -3.91935265204357
N          -1.21602596840608   -3.19841223926985   -2.57998978998745
C          -2.14583138350987   -2.27478970803457   -1.95025325140176
C           0.08391383659071   -3.21701738677216   -2.13443664360691
O           0.50824760922691   -2.38372249449657   -1.36293974285954
C           0.91823654895010   -4.29217509216120   -2.70952758868352
C           2.05920247089534   -4.71993531763790   -2.13329206107086
C           2.57636779482609   -4.33612911216053   -0.85068019731791
C           1.94198910019978   -4.19310041142046    0.37050963564528
C           0.53401315299694   -4.51078092559845    0.60556482151426
O          -0.23726356294294   -4.93153834296310   -0.23395240514054
C           0.11978098846654   -4.32096143001576    2.01409588316893
C           0.98623364271788   -3.80507739120297    3.01225346478162
C           0.37934176386022   -3.75202104733463    4.24281949738894
S          -1.24672307268851   -4.31044596335352    4.21047912365265
C          -1.12058672607559   -4.62259090590823    2.52590395529649
C          -2.30323474894251   -5.17846567428738    1.79552899309083
F          -2.73486519852211   -4.37359899085237    0.81974329274041
F          -2.06406362383271   -6.37743511549347    1.25825559311385
F          -3.34326422354531   -5.34187904155170    2.63321063078220
C           0.99452029404352   -3.32834758199086    5.54065375812778
F           2.13843700103787   -3.97758397920790    5.79283231937953
F           1.24826056613678   -2.02153171637427    5.60621966317616
F           0.17319786131679   -3.60651507679372    6.56948136921902
C           2.37549746596194   -3.37045841976969    2.72951242420195
O           3.00878672371338   -2.70097351401612    3.51669771516565
C           2.84021262204729   -3.78918348557313    1.40797686537980
C           4.15068170426184   -3.67646509640224    0.97546442341166
S           4.27859368928781   -4.04594434083788   -0.71135346705244
C           5.33627032031074   -3.35710343934483    1.73934896930520
C           5.48913658926407   -3.85365644224894    3.04042949356726
C           6.60311880233231   -3.50187400519377    3.75899918913749
C           7.59235476964246   -2.67659069120866    3.19492048776760
C           7.46557921724047   -2.21717258764847    1.89209248032528
C           6.34011867628382   -2.56548803716682    1.17198467452935
C           8.63374826634691   -2.47351159782080    4.17985104570709
C           8.27867700998281   -3.16298072456776    5.35259109819603
C           6.96023883062707   -3.87783029364516    5.17550726955840
C           7.12584149925681   -5.40131082321826    5.33142587194695
C           8.17306807951817   -5.98486068018655    4.39036594350263
C           5.89940969318259   -3.37121543557326    6.17240114346121
C           5.57689964403777   -1.89212804373070    6.00063560670548
C           9.10188418331787   -3.14715374698000    6.45173846341125
C          10.31330018116677   -2.44400672271757    6.39167471273729
C          10.65663918769094   -1.76522174606692    5.21727290527379
C           9.82648179931014   -1.76845654002022    4.11458987699081
C          11.21167296656958   -2.44362874183255    7.52470876988698
C          10.95324786010193   -2.78363543345931    8.81772157442099
C          12.07667624898103   -2.70414958770463    9.67599177823609
C          13.25100458933359   -2.28717637072969    8.99998511264060
S          12.88780293326461   -1.99019688285546    7.31091939683151
C          14.46231198217860   -2.16941104155194    9.66301704177922
O          15.66289121527407   -1.79026375427525    9.17763246776385
C          15.81078116005820   -1.43527669364044    7.82374995520010
C          14.45809199628546   -2.49533092625223   11.04122104314831
C          13.27383508764707   -2.90059051826782   11.72106657593217
C          12.06476281056750   -3.00781881491359   11.05334083488182
O          10.85132046051577   -3.37672604037198   11.53958963241499
C          10.69286922334831   -3.66232784410935   12.90950430575734
S          13.64071964584926   -3.21656664900481   13.39986567365476
C          15.34842572530833   -2.82691935502238   13.17206922954822
C          15.59309367968383   -2.46409878519530   11.87043236652449
C          16.15081393681582   -2.95054055208420   14.32413423719740
C          17.49038216254360   -2.81989246191913   14.58724782292744
C          18.53863163752311   -2.47716651475364   13.63126201243911
O          18.35352657056423   -2.20399084596438   12.46089264441923
N          19.83208323018765   -2.47705251408357   14.13436515533172
C          20.20555647187013   -2.73478825415824   15.43648090202154
O          21.36632080955312   -2.70839139627432   15.77438634449504
N          19.18477608871596   -3.01536820169360   16.31895414565683
C          17.84468057607819   -3.07842678684063   15.99421439830209
O          17.02805436849548   -3.34050323649876   16.85475200442295
C          19.53273608292749   -3.27572862642197   17.70591447530792
C          20.92707557399626   -2.16819143247156   13.22839930469904
H          -0.54784845445314   -6.05019757051328   -5.89326320204053
H          -1.78474076004473   -4.78392913414136   -6.14517961631833
H          -2.14864722652807   -6.17203776393068   -5.10720817798895
H          -2.69345385257815   -2.78597776651989   -1.15861920360532
H          -2.84832045437408   -1.91421514583264   -2.69854040294371
H          -1.57060338989613   -1.45331158462022   -1.52910170607198
H           2.65462273190784   -5.42846911802082   -2.70157842089546
H           4.74301193215958   -4.50699123718625    3.46383374131548
H           8.22561489245678   -1.59279985740987    1.44802406440464
H           6.21035846970047   -2.20185562928527    0.16279486967144
H           6.16117636013893   -5.87578598577007    5.14153570582097
H           7.40578589608959   -5.61754942848775    6.36425211201028
H           7.90934402271614   -5.79076670595098    3.35293702115432
H           8.24438967418388   -7.06077688632661    4.53187715572296
H           9.15037416907920   -5.54771889883253    4.58271907896450
H           6.26637261243511   -3.55272069518382    7.18499619277398
H           4.98366934499839   -3.94893846390886    6.03697949695180
H           6.48036905442231   -1.28755290104999    6.05314540002446
H           4.89914277559561   -1.56961428048534    6.78699409426737
H           5.09018583345865   -1.71755022990702    5.04475357923020
H           8.83728880084798   -3.68837921535323    7.34651962477239
H          11.59267612534583   -1.22629625582820    5.18260613629727
H          10.10681203591891   -1.23598778019681    3.21852341631507
H           9.98791647276309   -3.07505492219947    9.18642080520164
H          16.86098725772653   -1.16986214239323    7.71195001947371
H          15.19018299108100   -0.57437866558614    7.56127558871009
H          15.57597839195386   -2.27012864441454    7.15816317044653
H          10.95097119442548   -2.80357484117897   13.53402505637172
H          11.28730464276361   -4.52713531457825   13.21450484629358
H           9.63523791822567   -3.89160014109566   13.03317144729218
H          16.56565501251582   -2.18291454650177   11.51318886254152
H          15.58590726304878   -3.22772941207249   15.21293888031849
H          20.61243280252327   -3.20222233411182   17.80225630807520
H          19.19029759512248   -4.27129175299308   17.98608622557907
H          19.04084839099847   -2.54519196944084   18.34740482232618
H          20.50223961211215   -1.97035658615408   12.24772231842506
H          21.61402127611930   -3.01262104012555   13.18266898610731
H          21.46929635273975   -1.29605958947528   13.59197945950032
