146
 SCF done       -283.534495354760          0.000392225291
C          -1.08899306742604   -1.86114263674173   -1.39650131521033
O          -0.89730206160929   -1.03265835643318   -2.26285202739305
N          -2.37411258458990   -2.27990600996394   -1.12022826842033
C          -3.43788045250063   -1.68905872442434   -1.91563200534571
C          -2.72053366596156   -3.21085832723684   -0.16484538951523
O          -3.86329616080245   -3.55801329890277    0.01902841569916
N          -1.68506009481369   -3.72398366120926    0.58995965318142
C          -2.08337935452139   -4.67508424329155    1.61584470149957
C          -0.34069510836012   -3.40921588501324    0.46897648478281
O           0.45943904607503   -3.90507981532179    1.23899359360468
C          -0.00457783320128   -2.47779008291049   -0.60656868835959
C           1.24796771936543   -2.08849355466104   -1.00013292813265
C           2.56228856138523   -2.42272157649638   -0.60621700964491
C           3.07135809890943   -3.25340646729256    0.36110008100779
C           4.47808695752682   -3.31541802603035    0.38244561125881
C           5.29456333797127   -4.04843953229293    1.27482065762798
C           4.74999790300030   -4.94139679429318    2.27450532208321
C           5.21663516198009   -5.16103652133220    3.54144109751264
C           4.47626249022898   -6.14239547454160    4.23102166433481
C           3.45590083971188   -6.69196995260677    3.50757142767287
S           3.39064263453376   -5.97749554366114    1.93585695376977
C           2.48514583988082   -7.73834149652060    3.91506329296992
Cl          4.84566922100615   -6.60209576845025    5.84867253822321
C           6.66624944389112   -3.88108767369472    1.13123212997018
C           7.25700181640128   -3.04422966270491    0.14920386104124
C           6.44508990807761   -2.30873582474349   -0.73662660677415
C           5.06905847221627   -2.47422674595192   -0.59903241271958
S           3.85631398258949   -1.65985074934956   -1.53315708459968
C           6.99096159573925   -1.40634027680688   -1.72967569954383
C           6.53576406410018   -1.17861471512504   -2.99705912268419
C           7.26840152837785   -0.17666257523974   -3.66884484066856
C           8.27312662306249    0.37985121145477   -2.93199626696274
S           8.33315933409432   -0.35342487317838   -1.36609676092796
C           9.21798138796498    1.45995761058355   -3.31198214631181
Cl          6.91141941934935    0.29420695558042   -5.28577622071072
C           8.66969952553752   -3.12404628051978    0.17267313808451
C           9.15618879180692   -3.96679594173108    1.12873273425264
S           7.88067029722099   -4.71069896325243    2.06695558266446
C          10.51896329147455   -4.26998071597211    1.41112813107191
C          10.99701383809699   -5.10950520816133    2.37397424767119
C          12.40939971693538   -5.19950823217780    2.40060829411982
C          13.21086159615561   -5.99383443757780    3.24582152065411
C          12.62323177394239   -6.75184290889876    4.33058332230519
C          11.62198233416909   -6.36296215518570    5.17463225514615
C          11.29167488628840   -7.35571256440521    6.12173152658314
C          12.02415685622309   -8.50229308506535    6.01559682739845
S          13.16328973193379   -8.36203131449571    4.71916702696164
C          11.94003276096761   -9.73903421270626    6.83219591222077
Cl         10.06037669651034   -7.12131019765819    7.30373694480239
C          14.57767239973892   -5.98695105847307    2.99063487457326
C          15.17070329462856   -5.19696114386537    1.97461895661536
C          14.37132229941020   -4.38679748770403    1.14228171669465
C          13.00425028992560   -4.40535926930659    1.38866601101415
S          11.80273066482568   -3.53786793941061    0.47215957208832
C          14.96437390513097   -3.59651296890254    0.08233812656374
C          15.96419290499226   -3.95682883878906   -0.77535518611051
C          16.31961233661432   -2.92030100905160   -1.66524047023125
C          15.60645858816983   -1.76840511999057   -1.50227489752968
S          14.45232149063743   -1.95976344380545   -0.22550660906465
C          15.71252712985135   -0.49565142448733   -2.25935877762485
Cl         17.56445523545713   -3.10714356392110   -2.84145327251414
C          16.57984217913340   -5.31677457803974    1.97158196575305
C          17.05939720429103   -6.18086123219080    2.91433996759175
S          15.78084765410359   -6.87589184187471    3.88290369405664
C          18.42494759991234   -6.53992627150699    3.12346234109107
C          19.48771372475066   -6.18601711288155    2.34108903429614
C          20.72288482400182   -6.70558834691718    2.79040602283330
C          21.98617069679102   -6.56074883699970    2.18114229151529
C          22.15230653939079   -5.72411842177704    1.00966305929434
C          21.59662981892670   -4.49980917269070    0.76943218731592
C          21.94568534906786   -3.98198255578980   -0.49650034662030
C          22.76191316118263   -4.79184677972871   -1.23127577572552
S          23.12476740880233   -6.23359018801439   -0.34301486369434
C          23.31453541698854   -4.56974812054567   -2.59098891582978
Cl         21.36780706360656   -2.45726522010577   -1.05321247453169
C          23.03877712784753   -7.25492124076805    2.76580729780295
C          22.88625296353987   -8.04743932628969    3.93487863271733
C          21.61728479362426   -8.19820107531587    4.54217934081178
C          20.56791118685512   -7.50286791313120    3.95378375020569
S          18.90264075002019   -7.54748160598143    4.46811324646311
C          21.43999722238578   -9.06451588000132    5.68630019401715
C          22.04853909816062  -10.26276923349318    5.94219311694052
C          21.63133976751427  -10.83151457670158    7.16340214005288
C          20.71305450866192  -10.09072265918669    7.85136236495405
S          20.33490999028288   -8.64988007755567    6.97131929791051
C          20.07530796003655  -10.38171057121138    9.15965455306387
Cl         22.24389008937266  -12.33731770427721    7.72719294246702
C          24.10965991122859   -8.59509199486898    4.36526356904111
C          25.17352273518459   -8.30046203909386    3.55136484810794
S          24.68816302182567   -7.24401995600221    2.22516106833242
C          26.53978205728242   -8.65740813483974    3.61567501630627
C          27.21358621262811   -9.63557769487097    4.29557886261290
C          26.60428035983482  -10.71468235710083    5.07540628035685
O          25.40736754001360  -10.89004280793277    5.19863923403931
N          27.48934580318655  -11.59391381679518    5.67414120686852
C          28.86543905847822  -11.56023740367567    5.56998890372692
O          29.56363802181636  -12.36798576589620    6.13414985423060
N          29.40172309134153  -10.56294156495952    4.78302959561723
C          28.67804391894563   -9.59557215938765    4.11584592614156
O          29.23788048313033   -8.75943257295506    3.43627312729187
C          30.85076856402131  -10.56174094604002    4.66490310858605
C          26.95268953497239  -12.68026826449294    6.47881687783469
H          -3.39136767991503   -0.60401559017505   -1.82992196651635
H          -4.38709723382989   -2.06399540675777   -1.54250339368811
H          -3.30732224587863   -1.96179134655705   -2.96275784787323
H          -2.50457266821493   -5.56506277487466    1.14891027355269
H          -2.84044361451357   -4.22501235783400    2.25640114700111
H          -1.19904127750170   -4.93286617004012    2.19251604920138
H           1.21566101988498   -1.37402939580265   -1.82127063225770
H           2.43181055935349   -3.78210733947508    1.04097212864627
H           6.02816758889295   -4.61955714244021    3.99046321319719
H           2.57156753583099   -8.61450939272403    3.27294186175186
H           1.46547733146515   -7.36331386601087    3.83439017436318
H           2.67439158798755   -8.03407869343560    4.94395062886809
H           5.73316464371911   -1.72311751039007   -3.45806506208047
H           9.17031438933696    1.62707662831305   -4.38528542826234
H          10.23628421818574    1.19505735670892   -3.03318600281288
H           8.96106561299124    2.38978206046495   -2.80345594562861
H           9.31650009595265   -2.59347889506026   -0.50144687024027
H          10.34761588590195   -5.67017443153052    3.02109425375274
H          11.16360578181047   -5.39163590829313    5.15908681713448
H          11.20282545385608   -9.60798776823174    7.62034203008785
H          12.90551823561280   -9.96711564992683    7.28187158122188
H          11.64904436060170  -10.58826863376017    6.21445951273542
H          16.40453810263723   -4.93610983336106   -0.81019964415803
H          15.69787791030307    0.35616400887690   -1.58222545874594
H          14.87594762437027   -0.39090110966121   -2.95091938911574
H          16.63772940208598   -0.48388422988839   -2.83044438965698
H          17.21653092836457   -4.75767975026636    1.31320278005065
H          19.38637863172888   -5.60434884287576    1.44506836620776
H          20.99801056655258   -3.95981082214082    1.47960884906754
H          22.99218272540045   -5.35844589498364   -3.27009231836405
H          24.40371861469779   -4.57327697537688   -2.56671757936669
H          22.97200940226007   -3.61177311691521   -2.97437209632919
H          22.74368105928468  -10.74876424714405    5.28301744066826
H          20.39188710883008  -11.36047571788468    9.51130237898024
H          18.99013169880897  -10.36885468567548    9.06785230128567
H          20.35762313685373   -9.63280534568125    9.89936401409736
H          24.21786546702532   -9.16331914733507    5.26654495528995
H          27.18900317957545   -8.04691168126865    2.99162841244901
H          31.18318059574291  -11.48609652172044    4.19338970384561
H          31.29760751962118  -10.49387457973270    5.65594722181133
H          31.13257453100080   -9.70469078364142    4.05853882592773
H          25.87599295313922  -12.54750100372039    6.54618133518859
H          27.40521030234501  -12.65511517192719    7.46906076632386
H          27.18472690450633  -13.63724574355973    6.01217425752476
