94
 SCF done       -186.481940382297          0.000595193599
C          -0.58842487358305   -1.57799284686497    3.65783543122054
O          -0.38968751673484   -2.04531288222647    4.76243040925374
N          -1.70023253382608   -0.79864264028866    3.41183229464962
C          -2.62620943838417   -0.53789556774039    4.50208360801517
C          -2.02546898600892   -0.22031006624958    2.20149537270877
O          -3.01356440685487    0.46465822003100    2.07945325538730
N          -1.16642755790874   -0.47619274773153    1.15378686214122
C          -1.49602070652550    0.08724802755620   -0.14580123622119
C          -0.01664558992915   -1.24556570722184    1.21017919166960
O           0.61989594729323   -1.42146015414221    0.18986680016079
C           0.32499941573135   -1.79036925958288    2.52066148600306
C           1.44367461738973   -2.51914428845080    2.83595246828639
C           2.58543988304604   -2.92991315537477    2.12572758027696
C           3.02834471896659   -2.74127001773962    0.82197826860034
C           4.26465089610094   -3.32788378098882    0.59220785088015
C           4.78693049421206   -3.98958569969544    1.73109659978930
S           3.75296930073431   -3.87679329809104    3.07252340560025
C           6.03869761647416   -4.54803013718554    1.39316792179069
C           6.31656063182863   -4.24313243666587    0.04840759973687
C           5.20564070695056   -3.47938669121344   -0.50370709776135
C           5.08983976114263   -3.03157514796292   -1.78687328708815
C           6.06416667149670   -3.32443848536432   -2.76638811995643
N           6.84119135389715   -3.59541885316679   -3.56534808878284
C           3.99062005994435   -2.27577511618412   -2.25041178538818
N           3.11840072537528   -1.65793291283902   -2.66343475031220
C           7.54974173122854   -4.72297224011717   -0.37590562692248
C           8.22145623128077   -5.40144460980274    0.63131006922444
S           7.29710074028990   -5.45021777864490    2.12358903716219
C           9.51258305261608   -5.99913968133724    0.54904896505928
C          10.36623868246963   -5.74168537906829   -0.49880203972202
C          11.63562264084064   -6.28923179722428   -0.64295881236748
C          12.17638334509967   -7.23754685540031    0.33242411809328
C          11.52006392375643   -7.62270225647839    1.44925199040119
S           9.95179866984169   -7.06875516186580    1.87310372313129
C          13.46319781537748   -7.58541800671886   -0.16344873993718
C          13.72168363032619   -6.90168624033841   -1.35618853356691
C          14.99947675504506   -7.21816115394865   -1.86990509620977
C          15.65456678095840   -8.10786039865594   -1.07884132706430
S          14.76173948795516   -8.59944812290288    0.31830055157170
C          12.58422779307918   -6.07420910692720   -1.66798564572457
C          12.38036366812372   -5.17590342051386   -2.73371758426630
C          13.20486721703310   -4.92506861547774   -3.78766482720294
C          12.90104197155927   -3.96599276369014   -4.78196106185024
C          11.82804993416647   -3.08225936579418   -4.83458523228461
C          11.86248072366204   -2.28122260793231   -5.96708945347041
C          12.96411179705583   -2.54594439815037   -6.80488676712936
S          13.96242363103824   -3.78221836142915   -6.17252097471577
C          12.90175637304873   -1.69658902624447   -7.93114978949177
C          11.74219362437039   -0.88677411041161   -7.80294696345664
C          11.06587607865930   -1.21848985691429   -6.56062217126023
C           9.94650122898798   -0.64360911930176   -6.03278249168761
C           9.24862123528406    0.38721395740877   -6.69673558568023
N           8.67871604112746    1.22480006146926   -7.23351631835316
C           9.43815810696814   -1.01285943644582   -4.76924567554094
N           9.04358084227055   -1.28788324291707   -3.72780815359211
C          11.59612653501033   -0.01754882742846   -8.86459260737681
C          12.62514349447663   -0.13888110037487   -9.80878358487309
S          13.79700341617494   -1.37426751682688   -9.34348913560413
C          12.66943621545851    0.64984155756506  -10.96158223891816
C          13.56372343867588    0.73296172873668  -12.00515561348756
C          14.76130001059335   -0.06853319007931  -12.11274436957560
O          15.09038135208917   -0.91512054753995  -11.28891690258719
N          15.55621564546901    0.16022090995557  -13.21499569619083
C          15.29682934314103    1.07809348235290  -14.21827066680378
O          16.05419984773761    1.20991493567580  -15.15069206447147
N          14.14142430028736    1.81503737269509  -14.08855899125951
C          13.23986027768649    1.71614029070740  -13.04232338368326
O          12.25068734251111    2.41965293435664  -13.02184955746936
C          13.83120743707294    2.78621529366423  -15.12483267804078
C          16.77964099566010   -0.60930464069801  -13.37213015234608
H          -2.23246827855449   -1.02002415100940    5.39325276408095
H          -3.60837798082398   -0.93960418466559    4.25488386658250
H          -2.71628741897578    0.53671292351602    4.65607769548868
H          -2.39163315316603    0.69208328839913   -0.03460912919821
H          -1.66510720302536   -0.71735652618704   -0.86114691789141
H          -0.66347326231718    0.69467214004874   -0.49903743125388
H           1.44597433168995   -2.83302792836697    3.87857605849637
H           2.44808130869067   -2.19738477931926    0.09840082479103
H           7.93206751057516   -4.59880841447876   -1.37134188922492
H          10.01774445672144   -5.05072212784768   -1.25118947369788
H          11.93970655517928   -8.31208755616337    2.16460590195178
H          15.42835807863687   -6.82003331910100   -2.77057074189433
H          16.63347581198056   -8.51963378902926   -1.22852688394344
H          11.45235538402319   -4.62397003768970   -2.69265858457169
H          14.12920825830905   -5.46876356777222   -3.90415693727349
H          11.06624252519145   -3.02590082597156   -4.08021088054645
H          10.79260296911217    0.68763661236926   -8.98300872024810
H          11.83558340450221    1.34131050590083  -11.05808450230498
H          14.58643842841049    2.70600775033005  -15.90194235098793
H          13.83021300301767    3.78904338820825  -14.69804681818154
H          12.84062950464985    2.57866447418000  -15.52787213701355
H          16.85622767235828   -1.29069925191502  -12.52878280281388
H          17.63546639686826    0.06448483505160  -13.39667768113263
H          16.74557709994399   -1.16415740025382  -14.30901721027715
