91
 SCF done       -155.753890945858          0.000477051567
C           4.38297414572282    3.86396980610329    2.18331943353771
O           4.09951638692951    3.85260125932374    3.36604830211604
N           4.04973584612802    4.94190666302671    1.38407489631807
C           3.35791862671107    6.07142821140323    1.98249190434573
C           4.31612426599212    5.04669088394633    0.03590405867768
O           3.99056112580840    6.01865459662687   -0.60320918256486
N           4.97457328699876    3.98343893190411   -0.55204623239415
C           5.24422967970075    4.11905248122105   -1.97411489111668
C           5.38558916428255    2.83856033354777    0.10042592241355
O           5.96858046004381    1.95969820345378   -0.52009283699470
C           5.08576716945246    2.76511020341628    1.51394094117235
C           5.41803251050627    1.70448905237802    2.32627024206014
C           6.08026380787452    0.49438586473988    2.10199770780206
C           6.30076271142842   -0.46578519247551    3.10998689695697
C           5.79070865812200   -0.35625995014839    4.51183380441228
C           4.31110365990276   -0.74502021796486    4.58322006249012
C           6.99875820823375   -1.57169859413349    2.65453691269746
C           7.33161975864193   -1.50070494200194    1.30724311926478
S           6.76022914064920   -0.03621025340037    0.58518841491252
C           8.04115816331769   -2.43223096523470    0.49997541790615
C           8.58756871233146   -3.58128777959515    0.96493437075810
C           9.30917400793984   -4.57296567624345    0.24697246693696
S           9.72686559507737   -6.01073621179257    1.13456651555227
C          10.50567654064240   -6.73324855159512   -0.24338862230097
C          10.42327124627551   -5.87634052851578   -1.33712356661268
C           9.77086653474391   -4.66186008183067   -1.05816300554982
C           9.61506622170833   -3.57251948175277   -2.07427760192393
C          10.47925214083581   -3.82206943114916   -3.31811282595766
C          10.07110180401469   -2.91694463661261   -4.36956458777234
N           9.71099472977511   -2.20318263066885   -5.18496311675008
C          10.31611934547637   -5.28694831477700   -3.76501502264619
C          10.96305016470154   -5.50768278483149   -5.03972261956713
N          11.49166650954715   -5.67819047945317   -6.03726737852052
C          10.93692258524593   -6.20455962551823   -2.70430529440959
C          11.15217277907900   -8.00011133241952   -0.14611545979057
C          11.05221029344696   -8.97586715194678    0.84588295971911
C          10.12898145662027   -8.95558615137323    2.02435425302411
C           8.68617019992499   -9.24437228293749    1.60631280583979
C          11.88576123386002  -10.06800220773199    0.60122030180396
C          12.64920881270376   -9.97188618652866   -0.54663389661430
S          12.31165939816819   -8.47664142147085   -1.36208316576370
C          13.57854608522515  -10.90932276958480   -1.05070479876330
C          14.29503795703942  -10.73743533328295   -2.19373023529178
C          15.20751278463903  -11.70520480056440   -2.65981107741903
C          15.98642613800678  -11.64221593859458   -3.78548079852237
C          15.99518742212580  -10.49897305401523   -4.69811574745509
O          15.34650283684832   -9.48315885108237   -4.53674653519529
N          16.81670636266248  -10.63129667188179   -5.80688241867394
C          17.62263160875168  -11.71259900985600   -6.09992974253642
O          18.30960397006413  -11.73108704537142   -7.09454632331421
N          17.60117049854736  -12.75949342953240   -5.20030766230270
C          16.83999587316205  -12.80661063867145   -4.04872553533537
O          16.89618678537859  -13.77687056949916   -3.31949442937075
C          18.44287625313122  -13.91213644349891   -5.47425912157885
C          16.86520794183424   -9.54083664979965   -6.76816029603320
H           3.18097950199795    5.83280903802417    3.02829276264539
H           2.41534171730182    6.24105522141088    1.46351155726740
H           3.97156054091495    6.96763995717585    1.89564136692832
H           4.30702529535754    4.25343631456634   -2.51296122011264
H           5.74824852214193    3.21484928594486   -2.30565121259364
H           5.87426886894432    4.99098959898122   -2.14684335160312
H           5.09471169167787    1.85793239188306    3.35220957244230
H           5.91961751751626    0.65792981714039    4.89255547194336
H           6.36812868209410   -1.02981381726366    5.14763749308938
H           3.70728554608502   -0.07338016654435    3.97829672634957
H           3.96095808116665   -0.69459890606777    5.61094767059072
H           4.16893348195863   -1.75928500379017    4.21677351196991
H           7.25157186012064   -2.40366980957220    3.28788479536049
H           8.11331721928087   -2.15772510571284   -0.53967966171454
H           8.46308725843751   -3.81231626315203    2.01498847288043
H           9.89727034686121   -2.61427560880099   -1.63099131361554
H           8.56369671210159   -3.50360943946608   -2.37658560931163
H          11.53594146367763   -3.63423674187815   -3.09112616791959
H           9.24778187214328   -5.51049605922946   -3.87973455534889
H          12.02733772472899   -6.09953406059619   -2.72948948390929
H          10.70964326572188   -7.24472592052639   -2.95175684454001
H          10.18121213825673   -7.99373704626426    2.53640965406844
H          10.45567061051904   -9.72299774993387    2.72830705045318
H           8.32493501492057   -8.49047847328881    0.91160485154180
H           8.03814230767628   -9.24775198955571    2.47862166268485
H           8.62259945984849  -10.21634532070710    1.12234281485985
H          11.93727108837931  -10.92256271356270    1.25315235084622
H          13.70800771035745  -11.81098266289981   -0.46417016628927
H          14.17069525701934   -9.83453251088726   -2.77460175873570
H          15.31388629913403  -12.61432088294453   -2.07596827588284
H          18.93243439912245  -13.75405742151157   -6.43139635371530
H          17.82710038692841  -14.81057498422360   -5.50140697949924
H          19.18314210435305  -14.02109300496068   -4.68176592069277
H          16.17086162198540   -8.77342924451990   -6.43548272273442
H          16.58300542545888   -9.90909475095183   -7.75369609672573
H          17.87733939970249   -9.14074818826433   -6.82108777255481
