107
 SCF done       -195.359855312736          0.000770375433
C           0.08202903439471   -0.15756714329718   -5.74524164104702
N           0.98110398199130   -0.15889159142835   -4.60273382424483
C           1.28105097890955   -1.36020752410252   -3.99179167668773
O           0.80427923044720   -2.40421938593563   -4.39114156440075
C           2.19847903464800   -1.28313891290499   -2.84643344111931
C           2.49762539145322   -2.48569488433867   -2.25690626743475
C           3.30642131404443   -2.84360441540363   -1.16881364043735
S           4.22037713576258   -1.75014448046416   -0.16890005428998
C           4.81335040359099   -3.05802236428804    0.78482974359992
C           5.71196332601535   -2.76574730429557    1.88424073369067
C           5.66695941448976   -3.46514894139599    3.09349672293436
C           6.51254142445221   -3.12697932207713    4.12777363085703
C           7.42922749207509   -2.08598798040485    3.99575691648598
C           8.30841958049153   -1.68841020475316    5.11399490937952
O           8.96770580939550   -0.67388306346490    5.11540066841445
C           8.36291152300620   -2.61667594021411    6.28512687266800
C           7.65249354730412   -2.48786038779971    7.43319007744769
S           8.09729179575152   -3.66525604886282    8.61106226920425
C           9.28750312610774   -4.31165182236755    7.56617922508546
C           9.32809992305233   -3.66841348878231    6.36047144601867
C          10.18772859845440   -4.02131387058083    5.21693580415609
O           9.76621167816548   -3.93286783338395    4.07489211211811
C          11.55726494967598   -4.48422709455304    5.51366212126722
C          12.24543799023092   -4.06218213652179    6.64964200229546
C          13.54816240454195   -4.47440011181342    6.85804704705224
C          14.17187034507366   -5.31036943323115    5.94552785331486
C          13.49648987129388   -5.72487545158345    4.80789151507912
C          12.19969597164777   -5.30556575166402    4.58712431230233
C           7.48641985255205   -1.38090165106351    2.78000329047412
C           8.45893103334553   -0.30120251293999    2.58773395295688
S           8.03533436378734    1.34234762475585    2.83725180632162
C           9.65552231110502    1.87887616794563    2.41902952395545
C           9.85430799831497    3.27098051391802    2.55223499053563
C          10.67858050343887    4.18592081797342    1.95032994008630
C          10.62823968008582    5.53713708469878    2.53381758924349
O           9.92244534477589    5.82907156004279    3.47774100775214
N          11.46755733087669    6.47378474080024    1.96115255150409
C          11.50813496108645    7.81407790430812    2.52250675618071
C          12.28695997520014    6.25492392166389    0.87379016207189
O          13.01154537255059    7.11928038774547    0.44044758802224
N          12.22141229687825    5.00536548733456    0.29233109188161
C          13.01934894391954    4.82446460849998   -0.90954753951616
C          11.44379089396547    3.94972161425924    0.73686642311922
O          11.39928933239372    2.91359061283497    0.09488794630002
C          10.46704074837937    0.78440428327608    2.13952747389490
C           9.77336711322831   -0.43966850800893    2.21870337909761
C          10.42646019553400   -1.75808228498398    1.96040801016531
C          11.89942463615705   -1.69238888151389    2.38079687473794
C          12.01481287022416   -1.53439507281692    3.81139126488833
N          12.13218524529090   -1.43208640202154    4.94344108439071
C          12.59199106617906   -0.52139445060019    1.65022918719924
C          12.55280022992082   -0.78960052392610    0.22840355265936
N          12.52776015208388   -1.02615956845250   -0.88894834535414
C          11.94456271418336    0.84143762413791    1.95065812667957
C           6.62950205301903   -1.72184167152067    1.74910959654921
C           4.33808569487671   -4.28855236553878    0.35326913095074
C           3.48850198853584   -4.16943355652425   -0.74820418965581
C           2.87689567592581   -5.34592915774736   -1.44536544292904
C           3.08328783126458   -6.65212168580529   -0.66188450108349
C           2.14234301729853   -6.73039332980490    0.43327066619241
N           1.40892157374574   -6.78833692867766    1.30722021898628
C           4.52144706405858   -6.72970468655695   -0.10277279070291
C           5.46902721455603   -6.58882081252693   -1.18544500987407
N           6.21220022294357   -6.46786091874905   -2.04428726581076
C           4.72908205518750   -5.61445559365992    0.93236707328855
C           2.72672488374034   -0.00465114486253   -2.41347381548308
O           3.48866344339731    0.12812234612018   -1.46563667015909
N           2.32519552787597    1.09705481589257   -3.13607174133630
C           2.82136035602515    2.40966001394451   -2.75484840517347
C           1.46690907165380    1.07404999414922   -4.22101752945975
O           1.15950664254038    2.08602256240761   -4.80232469250018
H          -0.23106025516353   -1.18376982849065   -5.92014930752321
H           0.59876197026010    0.23716187603035   -6.61934608561228
H          -0.77984499893644    0.47397684418303   -5.53325646762007
H           2.00129757724906   -3.31883880276748   -2.74688299765452
H           4.93821930686020   -4.24607929857220    3.23751722162709
H           6.45625414450583   -3.66728087153225    5.06078031365590
H           6.88848571979979   -1.77096562020901    7.65922159228961
H           9.87335490913649   -5.15386644663443    7.87792647519633
H          11.77616290549743   -3.38225308581084    7.34284691503460
H          14.08312624863650   -4.13727376330941    7.73308466115602
H          15.18879407261476   -5.63177030272857    6.11557137647568
H          13.98523552747199   -6.36940290835716    4.09227391677739
H          11.65826006594925   -5.61180938019154    3.70362569253029
H           9.18782498081610    3.73279349332244    3.27928734108545
H          10.81809566162024    7.84101701615454    3.36208171248276
H          11.21462829831668    8.53953989887283    1.76456936951259
H          12.52091727564369    8.04292750421390    2.85243406007424
H          12.84643696948149    5.65847544920873   -1.58751071937458
H          12.72043053662881    3.88654556508509   -1.37146134871999
H          14.07835363134294    4.79641754180801   -0.65196481543473
H          10.37698595969106   -1.99503947921990    0.89232396369663
H           9.91602346125646   -2.55201066848313    2.50767922957417
H          12.39797045914260   -2.63486592754099    2.11832059236645
H          13.64942323072932   -0.48064905419711    1.94245928126554
H          12.16393820273368    1.51803336794630    1.11851060830325
H          12.39188341414518    1.26988723298939    2.85302057613702
H           6.67696251479463   -1.17518038008869    0.81905240440985
H           3.33985177287508   -5.45229764559824   -2.43205548362290
H           1.80614422355850   -5.18500600759057   -1.59699382722654
H           2.89352246715228   -7.50471702607433   -1.32555420948582
H           4.68635724856433   -7.70643820159847    0.36839441236213
H           5.77189845195392   -5.58649520864636    1.25782011865375
H           4.10654946103522   -5.84199770662927    1.80373364805149
H           3.52467254700150    2.27709187163714   -1.93685759802830
H           1.99003346941640    3.04048203891446   -2.44129416087696
H           3.31059380981455    2.87582182526274   -3.60901465582674
