90
 SCF done       -177.445182864169          0.000489253941
C          -5.38975596780319  -13.95120587373275    3.92719101586600
O          -5.83769627989072  -14.21429069030207    2.83090716149682
C          -4.91171267991707  -14.92578857078526    4.93017591469476
C          -4.48174564196886  -14.24387143324982    6.08165820408627
C          -3.98714480986899  -14.96872101140294    7.15737294321623
C          -3.93161131018491  -16.35074641180293    7.06369035729528
C          -4.36318594466318  -17.00204261384416    5.91511944342909
C          -4.86183218905926  -16.30026343879524    4.82619068949875
Br         -4.26559611848901  -18.89657538188570    5.83431664126168
C          -4.66395826847456  -12.80850739221609    5.87676779104764
C          -4.37212905947631  -11.83916447922768    6.79989450547350
C          -3.84019917048238  -12.10162790060253    8.08117156638136
N          -3.40565519030820  -12.24395909095882    9.13384885317787
C          -4.55419448967426  -10.44957340172662    6.63315870466506
N          -4.67121898927654   -9.30782444783852    6.58736763840265
C          -5.20675494187016  -12.62390328850408    4.54043963014399
C          -5.47265179477444  -11.41886607679231    3.95251389607027
C          -5.96898151353068  -11.10393852973412    2.67048124060457
C          -6.11966911810700   -9.78973683454495    2.26147252503725
C          -6.59905284093600   -9.65151734596857    0.95069518594522
C          -6.83273390508177  -10.91925859759075    0.34577505962593
S          -6.44509362212096  -12.23456002999270    1.41493265700248
C          -7.29597762435501  -11.03384633750682   -0.94869815852557
C          -7.52204260761129   -9.86619975816967   -1.67358525105688
C          -7.28041569319121   -8.60018352271426   -1.06441492940752
C          -6.83427695543820   -8.47487948930342    0.22634704782503
S          -7.60038723607410   -7.29332727073435   -2.17431952534907
C          -8.03720467009690   -8.43402224082105   -3.43506711523731
C          -7.95694301554526   -9.72993222923822   -3.01405315407647
C          -8.37486715952910   -7.95648970946815   -4.73526818168975
C          -8.32614649045404   -6.67000708631933   -5.18756844929366
C          -8.65183481230170   -6.53927328454146   -6.55971885166140
C          -8.97360190576002   -7.79061158027296   -7.15045358468166
S          -8.86344505767312   -9.08480402663385   -5.98876416183959
C          -9.29694023916860   -7.91896472271914   -8.48241941624855
C          -9.28133317774713   -6.76843855642459   -9.27076960752507
C          -8.95373304361585   -5.51822858093689   -8.68091350004679
C          -8.65189247221415   -5.38631466263095   -7.34442716831690
S          -8.95557332131302   -4.24018907250979   -9.86498186784629
C          -9.37321712435258   -5.37875476467807  -11.13467120162867
C          -9.52156775610748   -6.64994324231427  -10.66193820770114
C          -9.47169644219016   -4.93224759582535  -12.48541843378823
C          -9.19999999104565   -3.68666346573113  -12.97365575047192
C          -9.33151548165202   -3.58864871208195  -14.37945494250565
C          -9.73289312588551   -4.82214561259631  -14.96226567690679
S          -9.93438057419134   -6.05708064138117  -13.74975788433748
C          -9.90792615468485   -4.97829301467306  -16.31729485910932
C          -9.66298272511655   -3.87502425936569  -17.13765760265110
C          -9.25037641683260   -2.64573257590418  -16.55533814783507
C          -9.09303291186781   -2.48441211772688  -15.19806635926638
S          -8.96720260972626   -1.43451475642897  -17.77158124819454
C          -9.38581849910626   -2.57088768530142  -19.04940040617022
C          -9.75920755801325   -3.78780797433960  -18.54426671689239
C          -9.39114031930116   -2.19554546041133  -20.42069589522937
C          -8.67381062613767   -1.21940920819992  -21.03190989302747
C          -9.11492903292184   -0.67610572733174  -22.34596712793169
O          -9.92925666340681   -1.15565416964049  -23.09708101258909
C          -8.38242448421613    0.60293522534080  -22.49014914052288
C          -7.47189211091692    0.75001967460514  -21.42649997718445
C          -7.52627237614457   -0.44777001463743  -20.59456835305662
C          -6.52982077169185   -0.89109765809707  -19.76837598984375
C          -5.39019805722760   -0.13061741477264  -19.43596038190111
N          -4.45651071704328    0.45980036002723  -19.12571004777830
C          -6.48716791487669   -2.20332541538380  -19.24893467207011
N          -6.38565353418697   -3.28108824059142  -18.86823570184873
C          -6.68856664808002    1.89134830308024  -21.34117542828252
C          -6.82067186324714    2.86368630086591  -22.32018333338209
C          -7.71511062907299    2.69374463417490  -23.36990777728515
C          -8.51328510702531    1.56229583364816  -23.47326591383005
Br         -7.84936034183439    4.04732717596124  -24.69512481963207
H          -3.64595724551613  -14.48706983229198    8.05850483340239
H          -3.54896295102171  -16.92793324327830    7.89121343912456
H          -5.19849822306324  -16.79868985184564    3.93047192267899
H          -5.26282600785455  -10.53479211198046    4.54277391151441
H          -5.87907549949436   -8.95558118117887    2.89758482701671
H          -7.46937611674775  -11.99960523571461   -1.39567265849293
H          -6.65650828330869   -7.50994599925606    0.67331247514662
H          -8.18692153908189  -10.56502668027698   -3.65201434823882
H          -8.04594802777865   -5.84130343799386   -4.56134222680789
H          -9.53834389355390   -8.87730257598895   -8.91354142022860
H          -8.40504452354599   -4.42883295545502   -6.91452577421804
H          -9.77640176390750   -7.48199503509984  -11.29454033232977
H          -8.89798059631205   -2.86709548672132  -12.34572021885590
H         -10.21060770834884   -5.92188853475982  -16.74202434095461
H          -8.77925950357406   -1.54392099130148  -14.77433389484987
H         -10.05020261390117   -4.61286956944100  -19.16995856936702
H         -10.11342993132179   -2.71025336735264  -21.04728364859592
H          -5.99433213799415    2.03900617454142  -20.52980928463344
H          -6.22339730230650    3.76105282844230  -22.26984701703997
H          -9.20893824060172    1.42873428097791  -24.28708052037232
