111
 SCF done       -210.181252114121          0.000903523129
C          -7.62303384294751   -4.63000853327478   -5.60019788526916
O          -6.97973253095784   -5.62557230745218   -5.34627937686323
C          -8.03927727015304   -4.20812419195043   -6.95763620641682
C          -8.82290283679763   -3.04594897081840   -6.87765812051588
C          -9.30570739553621   -2.46591271741287   -8.04255876927600
C          -9.00208044464750   -3.05798792248558   -9.25917658666994
C          -8.23248039414781   -4.21257766213438   -9.31201459273155
C          -7.73594794881928   -4.80925256517896   -8.16152966104182
Br         -7.84731437445553   -4.99029383483950  -11.00235193809681
C          -8.96625556185649   -2.67868491794684   -5.47124433896795
C          -9.79047721511571   -1.69023151421708   -5.00116886330829
C         -10.56492196892882   -0.85080766936380   -5.83034533388053
N         -11.21360652271802   -0.13170022815420   -6.44675748367902
C         -10.03468370274341   -1.38400505199179   -3.64455407945401
N         -10.31945537320845   -1.07937975206619   -2.57445075860925
C          -8.14817625118966   -3.59157300423295   -4.68705143611995
C          -7.85345322934728   -3.38762426448849   -3.36504282902462
C          -7.08497307087715   -4.13449461115717   -2.44912181710522
C          -6.50824738262030   -5.38431801855877   -2.51622876567184
C          -5.81861024495564   -5.74268179646666   -1.34693394023905
C          -5.87172763430914   -4.73877035307073   -0.35551512396392
S          -6.79174339491022   -3.37040885947261   -0.88048302955335
C          -5.24916830477761   -4.84482958309070    0.88089611818389
O          -5.41296021361290   -3.76125938391885    1.68705836449059
C          -5.25584125897052   -3.84106188544868    3.08389088777745
C          -4.51351161246444   -6.02064995147751    1.11608406796898
C          -4.48839637028244   -7.05773717739334    0.12601777408552
C          -5.12653182236730   -6.95544913097168   -1.09768388610856
O          -5.19075900090995   -7.84444847806954   -2.11122531827070
C          -4.53679236134638   -9.08855628939604   -2.04375539412789
S          -3.51189657643953   -8.41191237678978    0.68216227230187
C          -3.11707932116113   -7.58316238753373    2.16431589849494
C          -3.71794169498162   -6.35996180913906    2.23918360698062
C          -2.24534564549438   -8.17993030323329    3.11474603633887
C          -1.64585947860234   -9.42113306663424    3.06105631379297
C          -0.81933712581517   -9.69650113926308    4.15340032353996
C          -0.79866154686922   -8.62589597086324    5.05143267606890
S          -1.78787127041059   -7.30929385321783    4.56060276362857
C           0.03244004696696   -8.78697510271834    6.18756141631283
C           0.72067675041643  -10.00133235733148    6.26963196802736
Si          0.29350971081485  -11.06626418561569    4.78680153431060
C          -0.64514888509193  -12.62198639248944    5.23888445861710
C           1.76136816809391  -11.40117431963198    3.67419324321693
C           1.52801356286377  -10.04398829193426    7.40843258786379
C           1.46807009357593   -8.89940728124813    8.17748450052854
S           0.37394030797843   -7.72183775134905    7.49223505289821
C           2.18363926439358   -8.60257148184657    9.36775132752631
C           2.15770431651777   -7.45262406233812   10.10435012889672
C           3.02089274007839   -7.46762448458558   11.22134843375452
C           3.73994835157500   -8.68419240331721   11.34467955511986
S           3.28882539658988   -9.77695257546115   10.04611619255189
C           4.66058267777045   -8.87814903982331   12.36190174926478
O           5.42963637436986   -9.95932111623984   12.61983758057317
C           5.39789196659275  -11.07931120745948   11.76657686620896
C           4.82897038257722   -7.80512824739663   13.26843496399472
C           4.09492075540835   -6.59303685854951   13.15149077639250
C           3.18909362064209   -6.39522462065874   12.12602512582892
O           2.42693658641763   -5.30520377106837   11.86137282941184
C           2.68070348280974   -4.09056217916624   12.52818773519684
S           4.53517416400810   -5.50119920169891   14.44814692448475
C           5.72661927161345   -6.62944251530705   15.07437427316133
C           5.71768581746506   -7.80020487033919   14.35823994954567
C           6.50346254760655   -6.36895302245262   16.22633993119047
C           6.75863789856227   -5.17792840113265   16.83699235268353
C           7.17512009373145   -5.14952612087648   18.26197318022447
O           7.56723382627539   -6.07714507224369   18.93020558670480
C           6.94245465904977   -3.75133548999756   18.69650820662279
C           6.54581630172851   -2.97394399255202   17.59218242913397
C           6.57867162075629   -3.81246369103846   16.39688247478018
C           6.70319900122314   -3.35769196225037   15.10962738545566
C           6.55325708191280   -2.00859236201877   14.73533543718246
N           6.40628580604063   -0.92744601941780   14.37794889130888
C           7.10181312639038   -4.18329750759415   14.03644193219624
N           7.49395425929648   -4.79740414882255   13.14938236926064
C           6.24630001146389   -1.63139070616035   17.76529552199712
C           6.35126122765901   -1.08429068390720   19.03527645317092
C           6.75772626213633   -1.86514255209365   20.10933125106424
C           7.05973941534091   -3.21247297670372   19.96082544194675
Br          6.90047131294672   -1.06713130313954   21.82793528983020
H          -9.90117552427488   -1.56826161709520   -8.02601876522853
H          -9.36674291022702   -2.61791995972073  -10.17465651041599
H          -7.13499898515095   -5.70476161020384   -8.19530932780492
H          -8.24281963921439   -2.47309218078220   -2.93224434736990
H          -6.57103721104640   -6.02311089640052   -3.37737320386527
H          -5.82840625024973   -3.00492296359895    3.48633110042737
H          -4.20833931576426   -3.71985861951084    3.37658939440534
H          -5.65361799457932   -4.77622794765460    3.48529503895074
H          -4.77120242476116   -9.58239450820227   -2.98588565909975
H          -4.90719668896477   -9.69809277351713   -1.21526484541684
H          -3.45325052692596   -8.97311957552898   -1.95795671421470
H          -3.55315121439979   -5.72406711535115    3.08759100941514
H          -1.81106063852907  -10.09812983041966    2.24105536036699
H          -1.49870112563525  -12.41751475207912    5.88237153800712
H          -0.01150701462008  -13.33315258327381    5.76475475895921
H          -1.02554087874834  -13.13060273406385    4.35541565156429
H           2.30533358952147  -10.49272040142681    3.42280518931801
H           1.45667738263079  -11.86113268010893    2.73638272165308
H           2.47149103839648  -12.07940956356299    4.14278913262490
H           2.15244505868666  -10.87832006105061    7.67692509496848
H           1.54381302337586   -6.60553616168777    9.85892639945831
H           5.70606345913294  -10.82061069640873   10.75047543901767
H           4.40726424219509  -11.54077373807046   11.74176760461386
H           6.11228002174184  -11.78311029842178   12.19141062538514
H           2.44647948183633   -4.15482000452189   13.59440243184739
H           2.01952098383016   -3.36267029245044   12.06010980448383
H           3.71800749668926   -3.77046767552268   12.39942649548296
H           6.36205576966258   -8.63086592646723   14.58147509710565
H           6.87959740305664   -7.24678938507812   16.74257001820003
H           5.92625041815348   -1.01412666625803   16.94138264503666
H           6.11745142251166   -0.04246401290740   19.19226190734150
H           7.37591036423251   -3.82057090284624   20.79415003639175
