84
 SCF done       -188.814817870694          0.000582491384
C           0.50841235673638   -1.24590306966913   -1.06347508556474
O           1.04846218482250   -2.02936717069739   -0.31308511068256
C           1.09586945000272    0.02493875194429   -1.54082463355300
C           0.21452979505740    0.65318672301071   -2.43582854599477
C           0.56567838117483    1.87431685419412   -2.99525842307768
C           1.78514103747427    2.43907794581869   -2.65479484645300
C           2.64348731621018    1.79534456431163   -1.77225844599435
C           2.31360682802582    0.57531698321403   -1.19824959078800
Br          4.30414380942506    2.60802972261111   -1.33858557678797
C          -0.96921153215035   -0.18741583124333   -2.59203722756371
C          -1.97590122556468    0.03754217941454   -3.49329603582869
C          -2.02447077422399    1.15290399393218   -4.35797408465043
N          -2.12706687136392    2.03544043663139   -5.08439284587483
C          -3.08315168229347   -0.80483531937545   -3.73487407453029
N          -4.00241040678381   -1.43390361031952   -4.01435789328155
C          -0.83467213787043   -1.31787845925135   -1.68383420596733
C          -1.84938728091240   -2.19698477489623   -1.41683907049729
C          -1.90214144152480   -3.34288888012948   -0.59945237517870
C          -0.94870103454301   -4.04193541548472    0.12052382745059
C          -1.46869006895209   -5.15507271433498    0.76856625066394
Cl         -0.50375358181512   -6.19796042266586    1.72567794101086
C          -2.83750506455823   -5.35714218612170    0.57607421735210
S          -3.46904347207958   -4.11420824936610   -0.44930776815962
C          -3.64767583855760   -6.39283386036383    1.09896896190380
C          -5.01338302742536   -6.58858433566631    0.92473489331804
Cl         -5.99770284298947   -5.54103527477043   -0.00465880613155
C          -5.51958312732156   -7.71725752804122    1.57225226776199
C          -4.55256437294193   -8.41822497291564    2.25768761474452
S          -2.99610047841707   -7.66157600055420    2.10129727049316
C          -4.70874035712271   -9.61128977827595    3.00942023551490
C          -3.73271018111510  -10.32691954862913    3.66425224464519
C          -4.23070210339041  -11.46773892158627    4.29775645230697
Cl         -3.22844030647865  -12.54031247444731    5.18069678371692
C          -5.59816840709933  -11.65493382202473    4.14931172136814
S          -6.26685049663731  -10.36366505059163    3.19103296023252
C          -6.40087206655168  -12.70670985880112    4.65865004916116
C          -7.77202824423980  -12.88331436502137    4.53408789179065
Cl         -8.78373771825587  -11.78576692134986    3.69347218214410
C          -8.26403751223613  -14.03579886551015    5.15183691859239
C          -7.27757134209125  -14.77524710844703    5.76288351834028
S          -5.72039934573640  -14.02324660765428    5.57292860631575
C          -7.41238043587875  -15.99835140504983    6.46915189989229
C          -6.41165488417908  -16.75780729038421    7.03327655766113
C          -6.89145060503068  -17.91673726746699    7.64582494307332
Cl         -5.86076416483979  -19.04092848461148    8.42485494197212
C          -8.27076567537606  -18.07194004480305    7.57546388005314
S          -8.97040185804333  -16.72763289872267    6.71523131929993
C          -9.06058921696410  -19.11963071385779    8.10467411911622
C         -10.44773400130999  -19.23800092552240    8.11848077807454
Cl        -11.48841363364551  -18.05892229482009    7.44019314338725
C         -10.91557833486032  -20.39998316461321    8.72552602480018
C          -9.90401951603980  -21.20247615369701    9.21996433550377
S          -8.34622353840946  -20.49987467125784    8.87330562529950
C         -10.07460278977042  -22.47319821274019    9.81505919589825
C          -9.17107806193749  -23.25713767385818   10.46347182957385
C          -9.41609589548070  -24.72244528361900   10.55835876010062
O         -10.45984223946309  -25.30102461757098   10.37536558762859
C          -8.08828131991079  -25.30779312077048   10.85473728795933
C          -7.15426487446885  -24.27647662633618   11.06880540549499
C          -7.85016362997402  -22.99440475407362   10.99786527208839
C          -7.43618605339968  -21.83466006563622   11.59573361747815
C          -6.15860133177536  -21.65852482637130   12.16437396188468
N          -5.12050896145614  -21.46505464672467   12.61376053788927
C          -8.28700579815249  -20.72575128671747   11.79237995708737
N          -8.97258888899243  -19.83477758150093   12.02234647884483
C          -5.82871925089827  -24.58885945386800   11.32983285305613
C          -5.45706606368338  -25.92366002202431   11.37935625668470
C          -6.39689002857553  -26.92752279996452   11.18047405534651
C          -7.72870000474242  -26.63853861594561   10.91310409147169
Br         -5.84204058643951  -28.74131887669968   11.27046870287701
H          -0.08435561610353    2.39422736459093   -3.67918383351349
H           2.07190397832982    3.38912430612625   -3.07884564385992
H           2.97364204559253    0.07003971793276   -0.51027692777363
H          -2.79862862247895   -1.98484507150140   -1.89542691342173
H           0.08372080581699   -3.74880744212056    0.17312423567759
H          -6.55259551283529   -8.01104864671391    1.53779977500623
H          -2.69760438091887  -10.03895054969130    3.68268720824285
H          -9.30096686952000  -14.31777149691950    5.14812151180236
H          -5.37231626618991  -16.48680521565339    7.00169441836779
H         -11.95907136649527  -20.63709220119162    8.82347998136365
H         -11.04392920341687  -22.93359178263868    9.64756322412212
H          -5.08751373577367  -23.82073621488140   11.48071023415908
H          -4.42921569664759  -26.18801556393477   11.57500208100531
H          -8.45984473140829  -27.41637018104615   10.75657106703674
