85
 SCF done       -171.103056002369          0.000345325601
C          -7.22930226943846   -1.52024032470249   -0.01250093577445
O          -7.66091148573157   -2.64164491433044   -0.15617457779410
C          -8.02680692276692   -0.28559706098091    0.14767802867973
C          -7.18529666522541    0.83758424632222    0.06457664084506
C          -7.73133195986366    2.10978398178441    0.16917388676278
C          -9.09903153568566    2.23695249646183    0.35641622863463
C          -9.91073263489173    1.11234944616452    0.43403788402652
C          -9.38965075917159   -0.16977957060417    0.32586163153707
Br        -11.77831074152330    1.33738880857496    0.69202676015727
C          -5.80931629184434    0.38672222516965   -0.12654519142108
C          -4.71248620029204    1.20030162503893   -0.23438852825213
C          -4.76566640354851    2.61039092060792   -0.21148770454285
N          -4.74268049188695    3.75789043009539   -0.20916416559333
C          -3.38198820152739    0.75584429463076   -0.38721055167064
N          -2.27576894556339    0.47292922729029   -0.50856205208428
C          -5.81874495399952   -1.06463586529855   -0.12464696605771
C          -4.76067765562730   -1.89491177051496   -0.33850753846596
C          -4.77167767182863   -3.30679176630828   -0.12974078543626
C          -4.01279092801248   -4.17527077034314   -0.90506889867949
C          -4.06925327216466   -5.55719273300713   -0.77229057652207
C          -4.84933143431848   -6.22489823700003    0.17500589741880
C          -5.53948673257321   -5.36239419196367    1.08051844879819
C          -5.50153049382287   -3.92741019877730    0.91852595480260
N          -6.15147946258437   -3.40027885773154    1.93456975143986
O          -6.57886001638367   -4.41644409937507    2.67310523088118
N          -6.22480325158045   -5.60028255262148    2.17913961389425
C          -4.90716338882957   -7.64329198623348    0.20196351843742
S          -3.90194288190300   -8.54098663448796   -0.92292562423327
C          -4.47983561006165  -10.08951608908107   -0.38830315819931
C          -5.41122374160798   -9.90052625213805    0.61795485030395
C          -5.66329977511720   -8.54243568024245    0.96315183420127
C          -6.63999713007733   -8.44590714841957    1.98486366973362
C          -7.09530670837252   -9.66376155815972    2.38654175935880
C          -8.09666866565863   -9.99158074870647    3.40595226262622
O          -8.42059943520835  -11.12092207332976    3.68383015824670
O          -8.60033239370265   -8.89545597552010    3.97999097211436
C          -9.58070640023435   -9.11818661008508    4.98389995368405
S          -6.36497890054702  -11.01045125865088    1.55027573091109
C          -4.00784571524170  -11.28749884834278   -0.97198869211344
N          -4.43877157215921  -12.53026224729022   -0.56219632728635
C          -3.81024255879967  -13.46701837898162   -1.31879327415881
C          -3.67641391447375  -14.83038649644595   -1.53123003933141
C          -2.75533759988206  -14.97023678146917   -2.58386656637353
N          -2.34902659705888  -13.72178740842626   -3.00851585101172
C          -2.95902552984986  -12.78876270304754   -2.23794729997883
C          -3.08287274674168  -11.42322893236739   -2.01716721120986
C          -2.27818258456948  -16.17765850811610   -3.13329164627877
C          -1.54778788501877  -16.30522275361614   -4.27816164677949
C          -1.06444617790490  -17.53146022165925   -4.78330156987565
C          -0.78874203890006  -18.69398368848273   -4.11660266082949
C          -0.71631456083327  -19.96299480868738   -4.88383617423069
O          -0.68677862056819  -20.08778817288863   -6.08638170904636
C          -0.73964373387995  -21.03510032102855   -3.86194716889186
C          -0.69379830668512  -20.45773120395792   -2.58016204022540
C          -0.58258831332332  -19.00530277614600   -2.72092539042736
C          -0.11582254120056  -18.16229349664210   -1.74304765244230
C           0.16224967130670  -18.56726318260982   -0.42224642898005
N           0.38597502538501  -18.83788122928594    0.67087037168002
C           0.20967411281524  -16.80898507462926   -1.95465986797198
N           0.51749938153124  -15.70911214989762   -2.07465141748343
C          -0.73951327841803  -21.27084014771431   -1.45791266827256
C          -0.82138946118232  -22.64428474909229   -1.63248476489047
C          -0.85046286930601  -23.19443590812981   -2.90712454354690
C          -0.81238773521186  -22.39996470409499   -4.04573504852626
Br         -0.95308100432993  -25.08230483929729   -3.09556639421425
H          -7.12170998362752    2.99602307347123    0.10662081590394
H          -9.53927215012609    3.21864829708595    0.44102878839731
H         -10.01495589793082   -1.04716964633613    0.38255169571687
H          -3.83223632057759   -1.48594991269586   -0.71630370016793
H          -3.39368264540473   -3.75979394956755   -1.68659095922925
H          -3.48714770852337   -6.15358168981253   -1.45984581267389
H          -6.97935281920751   -7.52012278232308    2.40806954084706
H          -9.87936139078350   -8.13454061802008    5.33584512040214
H          -9.15996791334742   -9.70857498070871    5.80044163968438
H         -10.43551077849482   -9.65475275827006    4.56692184456879
H          -5.10163368109575  -12.69368461053921    0.17654935768335
H          -4.16483117928380  -15.63653178001300   -1.02219367325483
H          -1.60609090480369  -13.56226669168979   -3.66654818331864
H          -2.59270207884063  -10.61240579612893   -2.51707623682692
H          -2.56883334196463  -17.07239042905358   -2.59872312452473
H          -1.39184389496349  -15.43898571562916   -4.90669375062998
H          -0.94163810987088  -17.59681832635788   -5.86036559764864
H          -0.72397014129954  -20.86154132201601   -0.46090776739469
H          -0.86243461202527  -23.29275958025466   -0.77088032360996
H          -0.83798487999138  -22.82401382177876   -5.03747940448222
