87
 SCF done       -180.224086514273          0.000475184445
C          -5.89769966348027   -0.99209083391509    2.21320545221520
O          -5.22973709723324   -1.91279524035083    2.62481802464680
C          -6.65576593605439   -0.01494482229610    3.01979439817321
C          -7.04125544854864    1.06702522398251    2.20874685892155
C          -7.79893262146847    2.09392264716453    2.75547765587230
C          -8.17473278632057    2.01052540236705    4.08803219660904
C          -7.78218572440802    0.92975079902770    4.86651363430093
C          -6.99718555813698   -0.09247910347955    4.35303713115898
Br         -8.35257706703137    0.82949696520565    6.67190288634818
C          -6.54903111424550    0.84154205786936    0.85093338138972
C          -6.60795724461570    1.74114809720861   -0.17889008723811
C          -7.14771267230973    3.03997084972191   -0.06178670528096
N          -7.56786204863763    4.10706241923572   -0.02374475816280
C          -6.10368408700317    1.51336759287475   -1.47681884526050
N          -5.71050504637733    1.39150751868003   -2.54842987419392
C          -6.00782500390676   -0.50637395684873    0.80981800937730
C          -5.63719651899523   -1.22617886897165   -0.28290392060119
C          -5.41988141302657   -2.64059139697369   -0.26397711555867
C          -4.52032164044662   -3.28718121918887   -1.09904383902036
C          -4.26398001899191   -4.65678249639414   -1.02944875021402
C          -4.90901045551500   -5.52139987798443   -0.15054329912564
C          -5.93124303141647   -4.91414430544177    0.64342734057816
C          -6.17521699428137   -3.49607608223032    0.58265797169400
N          -7.20415781505234   -3.23966582791115    1.36401631879871
O          -7.57216928269736   -4.39858878159186    1.89403165296517
N          -6.81900934477886   -5.41688570831198    1.47974534774961
C          -4.56808789225927   -6.90441958422524   -0.00221250721734
C          -5.18672152123026   -7.69810166720272    0.93670382087412
C          -4.84840476160213   -9.01102737391562    1.23507210527404
C          -3.90180121262891   -9.75780491670193    0.39967626297584
C          -3.18738955723056   -9.19110769791510   -0.59831741715417
S          -3.27354801061448   -7.53000186422448   -1.02096032148963
C          -3.94228218878312  -11.09183284020898    0.89073047456917
C          -4.82431032624789  -11.16833943321966    1.97482103814538
C          -4.88811990525515  -12.47143400703186    2.51697085959322
C          -4.07848614781508  -13.33057024761321    1.84591174092664
S          -3.20265709305186  -12.60088296686306    0.54052376153645
C          -5.37400725529309   -9.86707468287462    2.22850256715089
C          -6.24499677988360   -9.53166406564231    3.29671168156227
C          -6.40104712331839   -8.26811202479124    3.77232436636213
C          -7.32521155423008   -7.82513977593898    4.74887692266276
C          -8.22750452746350   -8.50430066916169    5.54512903931523
C          -8.97594101736019   -7.65466802946364    6.35718046218757
Cl        -10.16289319641470   -8.22741242294637    7.45462460417721
C          -8.69212414473878   -6.30003842825033    6.19574118898119
S          -7.43803277839281   -6.10876335011560    5.00839881059772
C          -9.28109319312553   -5.19264038160664    6.84678280060911
C          -9.08572182509993   -3.83633201764551    6.59139005532123
Cl         -8.06437049128155   -3.27123188583795    5.33814501028490
C          -9.79853047101535   -2.98661140976243    7.43130777540240
C         -10.59461297395978   -3.66156116787751    8.33851408243513
S         -10.40138489180010   -5.38665182894884    8.15570740371386
C         -11.37653844256159   -3.07548333395482    9.35809308484501
C         -12.33679537517304   -3.64585270084115   10.13825111581189
C         -12.67335785415971   -3.03929118400055   11.45338125495872
O         -12.39028912604081   -1.93192239071961   11.84323970002859
C         -13.36995339191414   -4.11500554974513   12.19824604791213
C         -13.56673341851510   -5.22308402136783   11.35319477376712
C         -13.07470254575826   -4.88599352266399   10.01991801391669
C         -13.48722921474100   -5.47379047677139    8.85349673341612
C         -14.27219190525533   -6.64244170618217    8.79843185183911
N         -14.89139729731280   -7.60438227609900    8.70521764332379
C         -13.24825925329740   -4.91130272156941    7.58152119667171
N         -13.12374206038044   -4.45217967622549    6.53717731212204
C         -14.17593991590129   -6.36731931377188   11.84505775266025
C         -14.58413585955046   -6.38674973430110   13.17003119949636
C         -14.39327089682948   -5.27769479013722   13.98426431226424
C         -13.78188749861635   -4.12254461716636   13.51487811777963
Br        -14.98065642181705   -5.34798567596256   15.78927320607624
H          -8.11439926238664    2.94106774476369    2.16876102360134
H          -8.78186001875213    2.79003689126350    4.52267896143734
H          -6.68027197282800   -0.92752068518650    4.95727174940559
H          -5.52020579964684   -0.73762990138675   -1.24136780777623
H          -3.94843660306752   -2.69362114868794   -1.79712082565558
H          -3.50351837468735   -5.06105337949439   -1.68137067937255
H          -6.01405059175860   -7.24594951639265    1.46008539188640
H          -2.48025938649114   -9.74517782773076   -1.19548918037857
H          -5.49827625135424  -12.76093817625186    3.35294926379900
H          -3.92958688658059  -14.37580070247137    2.03429422819848
H          -6.78474517490620  -10.34827773796010    3.75703121555428
H          -5.76834690670231   -7.48317199863012    3.38662043689757
H          -8.33985811482656   -9.57206832370208    5.55419262074536
H          -9.75647369585876   -1.91452365981498    7.36776436509398
H         -11.11102349899241   -2.05518949905625    9.61816412008417
H         -14.32531855334843   -7.23729740625368   11.22620036968345
H         -15.05516085990131   -7.26965455755269   13.57415204139694
H         -13.63179109549369   -3.26064273490555   14.14632173396886
