96
 SCF done       -186.190711749195          0.000640905889
C          -5.66887299384987   -8.07017389604196   11.92628164353956
O          -5.79551910586984   -9.21141683260041   11.53489647901100
C          -5.70342567926636   -7.65028487454122   13.34542957825220
C          -5.47987926969620   -6.26741073306488   13.44233556421575
C          -5.48371014870924   -5.65937065432540   14.68994781892576
C          -5.70263421982225   -6.44227734001278   15.81314106930233
C          -5.91081092164273   -7.81021960185795   15.69330770773203
C          -5.91714778866255   -8.43977520040402   14.45645583827262
Br         -6.19583265213141   -8.84285826782135   17.26269704099767
C          -5.25979988840015   -5.74069536676724   12.09917747765706
C          -4.81855867794645   -4.47623009526207   11.81289544832445
C          -4.61894792019017   -3.47522355894562   12.78761245351615
N          -4.45064750915287   -2.61852200576865   13.53279502849269
C          -4.43124366702181   -4.00291861673198   10.53924144959733
N          -4.04743597686072   -3.54437670460962    9.55917422474679
C          -5.48030888061798   -6.82372820818584   11.15013613564521
C          -5.62606716827099   -6.60374831141389    9.80656259739079
C          -5.78359824279917   -7.47373626994571    8.69616856726237
C          -5.63226358672257   -8.86007286564531    8.64959670237144
C          -5.73740322483035   -9.60534161350240    7.47917497434534
C          -5.99595800943475   -9.05154739122497    6.22652788038216
C          -6.16885507578622   -7.63633229733042    6.22548246874073
C          -6.06803480403414   -6.86609543329818    7.43664089703428
N          -6.28609678299691   -5.60749185398003    7.11614855087338
O          -6.50281025645273   -5.58085916724756    5.80634056816141
N          -6.43610327516378   -6.79308889600353    5.24748546206775
C          -6.07594402297694   -9.79264558067702    5.01866143965988
N          -6.28131431900410   -9.16268682450865    3.81071354088385
C          -6.29169592617051  -10.09969768275964    2.83436437820332
C          -6.40556269345793  -10.29616172994087    1.46436342326711
C          -6.27988642882116  -11.67861617632133    1.25799387335931
N          -6.09779231858921  -12.31200541516492    2.46914265531160
C          -6.09326603984510  -11.37192573505390    3.44848161899877
C          -5.95676786091412  -11.17950241284890    4.81411228697502
C          -6.30493551180003  -12.35666213053032    0.01617297195599
C          -6.19684401581500  -13.70164593282133   -0.13450915158185
C          -6.17953793562622  -14.37558212943786   -1.37592052926266
S          -6.25606655208867  -13.52303052728816   -2.89194251371979
C          -6.09160861862256  -15.75459117583529   -1.57384055361082
C          -6.05038124498342  -16.74035493978634   -0.47928005975863
O          -6.01498559340297  -16.45148385056926    0.70874186433010
C          -6.06529887717771  -18.10926978317424   -0.96530909179059
C          -6.10368076708103  -19.29061506692652   -0.25678851034359
N          -6.11220767298723  -20.32256411646083   -1.13394768386054
C          -6.23160979215879  -21.71462233365011   -0.77896746369434
C          -7.69614688803577  -22.14670889351011   -0.74758519162271
C          -6.08763448857171  -19.84251230498662   -2.39820132260998
C          -6.05441141216251  -18.46495014197504   -2.34466743619315
C          -6.02923483895166  -17.50510605855142   -3.42932985907350
O          -5.99974751362571  -17.82612503271687   -4.60893088909200
C          -6.06281897371651  -16.10958541597158   -2.94716390681768
C          -6.13228786915629  -15.00561238401709   -3.79124087337974
C          -6.16741363837677  -15.04331117450844   -5.20376488430957
C          -6.53346933225934  -14.02519896281072   -6.02102686349938
C          -6.61538473035721  -14.14660567713790   -7.43165654922069
C          -6.72968686807234  -15.26590183934142   -8.20154269949894
C          -6.39224286626029  -15.15869706710109   -9.64803267407782
O          -6.26141005010419  -14.14341252337942  -10.29058087785074
C          -6.19619260095281  -16.55237309054067  -10.10334603500701
C          -6.52666425995479  -17.43536263696525   -9.05970254939124
C          -7.01726723531988  -16.66229373210412   -7.91948228620636
C          -7.80785200237641  -17.17297489910893   -6.92660105760410
C          -8.10909966980063  -18.54284108533422   -6.77583736573462
N          -8.39052103330564  -19.64092972936299   -6.59718072334136
C          -8.46607194259102  -16.39650715083150   -5.95162744796036
N          -9.05329835709976  -15.81742553917621   -5.15342445783332
C          -6.37242555357423  -18.80197645919319   -9.23945488751101
C          -5.90696488891066  -19.26464313933138  -10.46049159345869
C          -5.60652113261759  -18.37630402892744  -11.48558864893396
C          -5.74081420692224  -17.00418884553079  -11.32532076029186
Br         -4.98242680434220  -19.06028560347586  -13.14478533931408
H          -5.32754690851866   -4.59964785165624   14.80553131193730
H          -5.71028532352470   -5.98566702861317   16.79095446849449
H          -6.08041062869217   -9.50165829512430   14.35650397076511
H          -5.64321629737196   -5.56308113084368    9.50090516768670
H          -5.41954066081745   -9.38597525932049    9.56569746865896
H          -5.59742925848471  -10.67242877440495    7.54772148032105
H          -6.40328043364039   -8.16282422424140    3.73135711019955
H          -6.55813371265117   -9.56556162708787    0.69617234385150
H          -5.97632277308121  -13.30342490356630    2.58473346339138
H          -5.79572266085169  -11.91807945817421    5.57244499606277
H          -6.41048475809073  -11.73129646304186   -0.86072795600037
H          -6.11274095808238  -14.35478676615043    0.72244659802234
H          -6.12301500924856  -19.44440659319388    0.80394170342852
H          -5.77535780177319  -21.86190209255657    0.20316243083019
H          -5.68249304781074  -22.30946982646126   -1.51338131288896
H          -8.24858399525636  -21.56133754252520   -0.01644194294135
H          -7.76742615786339  -23.19700088018094   -0.48001182374328
H          -8.15421930275769  -22.00243264661828   -1.72301689128531
H          -6.09550512465676  -20.48544620921363   -3.25590965886315
H          -5.88390879724952  -15.99588985088358   -5.62941250429417
H          -6.73865513721047  -13.05001861670578   -5.59765921547896
H          -6.52292394267151  -13.22562531299693   -8.00007997521601
H          -6.59156507316678  -19.50177806549171   -8.44972761668030
H          -5.77614107824907  -20.32410402707278  -10.61928595602385
H          -5.50008008323419  -16.31122353795005  -12.11649660313779
