83
 SCF done       -162.464250771559          0.000635233094
C          -5.15513318703212   -0.81513530940013    2.66187486842774
O          -4.62044377908375   -1.85671021707075    2.96724451418173
C          -5.34173444082415    0.36593401157989    3.53142235442492
C          -5.78742451487668    1.45574217681091    2.76292792917790
C          -6.00636999792006    2.68134562711954    3.37767140970880
C          -5.78393124417040    2.79463800352033    4.74119208124067
C          -5.34554514671314    1.70321465368757    5.48039704167671
C          -5.11028778143553    0.47030279291858    4.88717909510126
Br         -5.06002335453783    1.90602983326720    7.34640384426775
C          -5.94028014355788    1.02789610897130    1.37513284853373
C          -6.36949244225641    1.81749231716580    0.34160513701979
C          -6.69068940561429    3.18604404918092    0.46937349068869
N          -6.96017697297096    4.30095636279682    0.50475538604669
C          -6.54859163593277    1.38986156693047   -0.99121320156115
N          -6.72151136340602    1.11850091284118   -2.09350501707906
C          -5.60743592056255   -0.38459585912512    1.31238032688942
C          -5.56734225074436   -1.16871178268330    0.20094882981691
C          -5.42418397033192   -2.59051700420920    0.19534116792585
C          -4.76008187784308   -3.25476227252838   -0.82710371517768
C          -4.54267921316550   -4.63048806371315   -0.83001963208936
C          -5.00913248164658   -5.49077612922320    0.15991149847856
C          -5.79774025891518   -4.86275462531887    1.17173185080630
C          -5.99418020252255   -3.43314749657051    1.18709771918812
N          -6.81262915442771   -3.16060669393544    2.18162551067753
O          -7.09754874942096   -4.31762225094317    2.76266151536692
N          -6.49680394309774   -5.35489606227820    2.17551912023731
C          -4.73529939131987   -6.89631350969731    0.16638093205828
C          -5.20714489341484   -7.74028460779863    1.14862214066436
C          -4.96838530369470   -9.10678199480396    1.20896189414657
C          -4.15772448770854   -9.79078985040523    0.20107322458039
C          -3.58756798092282   -9.16689767781287   -0.85345926902043
S          -3.73623070210050   -7.48892241608135   -1.15972266798258
C          -4.13434145864808  -11.15427399068722    0.59923779812837
C          -4.87174164273498  -11.32462695772316    1.77731840608488
C          -4.88955412181954  -12.68013883808910    2.18193939241767
C          -4.18138345630006  -13.46990080718912    1.33383944261360
S          -3.46513119591933  -12.61863429747138    0.00884281644874
C          -5.39846503578832  -10.04585883089955    2.17873795791794
C          -6.19041270661794   -9.72129995716227    3.29957465781328
C          -6.50170172391635  -10.56440991176487    4.32289721345850
C          -7.31262853297842  -10.21962316948113    5.42697146208259
C          -8.01678687986156   -9.05307110623386    5.69515075355896
C          -8.70861498467559   -9.06855611218297    6.89931445227468
C          -9.54880862010894   -7.94262310159161    7.39219667223586
C          -8.56910750329590  -10.27938396219270    7.58935282308155
S          -7.53477036835241  -11.37301436328185    6.70606936657984
C          -9.06575637063191  -10.56099375185252    8.87334482499036
C          -9.13868936618163  -11.75358740276024    9.53782658770990
C          -9.18225982547818  -11.76217775409959   11.01958746830960
O          -9.39779696630936  -10.82397318392778   11.75210412919460
C          -8.84303583286352  -13.15400721878689   11.40209538542095
C          -8.73719829201612  -13.94656057259481   10.24413911648072
C          -9.06971144397708  -13.12207316572026    9.08414390471044
C          -9.51520685174359  -13.59486345960917    7.87596751024374
C          -9.48968793465926  -14.95276959043588    7.50557436304369
N          -9.46525079879103  -16.04484032665689    7.15190880777131
C         -10.14357986454010  -12.76877509167653    6.92150704530221
N         -10.71224135876159  -12.13122487712748    6.15477688468205
C          -8.39686313108352  -15.28570999554893   10.35261595283934
C          -8.16982867693048  -15.81448777802446   11.61463828175946
C          -8.29149793631807  -15.01859464849663   12.74590843079520
C          -8.62965334963843  -13.67415874920418   12.66146229934996
Br         -7.98168926549032  -15.79086063902440   14.45450083108383
H          -6.34179701972999    3.54236774474482    2.82357837489920
H          -5.95132095255516    3.73971230170802    5.23464829806717
H          -4.76622734980451   -0.38015208430713    5.45489126121703
H          -5.62596959868298   -0.70560045537778   -0.77579581798957
H          -4.34452902353737   -2.66964062292342   -1.63436308701841
H          -3.96910219111813   -5.04483662541478   -1.64561273047588
H          -5.80917491411661   -7.27946938849072    1.91838431516805
H          -2.99027089579357   -9.68673297934385   -1.58584761210815
H          -5.40072003747439  -13.07479666523878    3.04012950365659
H          -4.03009460896214  -14.52953168225462    1.40040804524155
H          -6.56021637226782   -8.70646135108880    3.33946582585047
H          -6.10355823074462  -11.56715427350455    4.32914805172887
H          -8.02650368795088   -8.21236110994392    5.02527668109070
H          -9.46047412791059   -7.08813820401065    6.72736919832917
H          -9.24429734612103   -7.64202151145145    8.39397706384550
H         -10.59420795117462   -8.24499932886157    7.43699728830175
H          -9.33883537799663   -9.69522646135686    9.46976585364358
H          -8.29526819149441  -15.91454632360559    9.48284007918603
H          -7.89761238530662  -16.85339605361153   11.72072577328950
H          -8.72417804866751  -13.05442590753944   13.53959636722044
