75
 SCF done       -158.670186007524          0.000760867719
C          -7.62222139093731   -1.14695322220579   -0.77500894259821
O          -8.09374954195352   -2.24209704014499   -0.97441500241883
C          -8.16404539936953    0.13585282187090   -1.27242151813431
C          -7.37411882490358    1.20491885020872   -0.81506178768640
C          -7.70769790511787    2.50454567888748   -1.17348649135054
C          -8.82122562805474    2.71093485605508   -1.97204231863003
C          -9.59290576737505    1.63910658061502   -2.40652253779013
C          -9.27613228518543    0.33121284114219   -2.06600694455210
Br        -11.11425771827554    1.97445378294524   -3.49075619809820
C          -6.29797864560496    0.67069608203816    0.00961082523364
C          -5.43711362294394    1.40335735778360    0.77822879783834
C          -5.41817511148650    2.81522460963383    0.80880249804041
N          -5.35700163149903    3.95955211866188    0.86292387235537
C          -4.49800571967333    0.86000835261857    1.68397757123481
N          -3.74302880112991    0.49859849940034    2.46861173313524
C          -6.37505674189964   -0.78558500583462   -0.04492698663874
C          -5.35923403201602   -1.61486498757342    0.31299714563966
C          -5.31332748031731   -3.04493899332366    0.35201219877552
C          -6.37349388987389   -3.91496342353555    0.53923679950664
C          -6.21587277410314   -5.30582962405681    0.61404000037462
C          -4.99592768856932   -5.95601146656216    0.52030409032070
C          -3.86891870448416   -5.09892135722204    0.34769347309295
C          -4.03522827598132   -3.66831058246082    0.27369543264967
N          -2.83930376074133   -3.14022991977618    0.11298943268689
O          -1.98452157611115   -4.15330208850587    0.09201042778959
N          -2.57612826491784   -5.33610721507181    0.22885112446014
C          -4.86453428562072   -7.39271129401140    0.60583511316850
C          -3.64045904690108   -8.03765456694602    0.55636687684817
C          -3.48933106304366   -9.42730394013303    0.65044784580837
C          -4.54833343296505  -10.30689382630264    0.79491213757822
C          -5.83311116644982   -9.69215120893479    0.84028449041857
C          -5.98868434203483   -8.25621924256467    0.75364448136775
N          -7.28068002231146   -8.00565403334561    0.83930221030649
O          -7.88908792851969   -9.17787819099493    0.96883939710290
N          -7.04284396956507  -10.20082828756864    0.97279880040512
C          -4.37210632565718  -11.73770156989634    0.89474804705702
C          -5.43526381672786  -12.62426773606976    0.92893275222153
C          -5.28154559327310  -14.01290172144564    1.01888949429787
C          -4.05133629148121  -14.64565884397549    1.04113378210991
C          -2.92901975733897  -13.77399831208318    1.04393826862932
C          -3.08253625412044  -12.33990851929046    0.97601318323525
N          -1.86937866714436  -11.82638646603635    1.03408055547440
O          -1.02630493211778  -12.84617800376399    1.13582475215875
N          -1.63910789304194  -14.02659961247356    1.14465212887546
C          -3.94518676223553  -16.07214932757388    1.12840208014939
C          -2.93050794332223  -16.88804538713238    0.75952303874452
C          -2.88903424104349  -18.27986741839624    1.30537851835269
O          -3.78860462223365  -18.86788368313031    1.85251383200212
C          -1.50218352708653  -18.73535068874811    1.07414093007119
C          -0.80976916639027  -17.77160125078879    0.31631176943102
C          -1.72497898451125  -16.68740977182381   -0.02312350816993
C          -1.56341176254385  -15.80636163530122   -1.05505150325186
C          -0.39833104115864  -15.72765730199968   -1.84804150275864
N           0.52444997207359  -15.61570475509624   -2.52002452457310
C          -2.57299945719959  -14.92552988857643   -1.49471979325672
N          -3.37417492055299  -14.20699942021893   -1.89314496149720
C           0.52738851883613  -17.97143103381804    0.00458869620652
C           1.14719107869216  -19.13062980709915    0.44378164717107
C           0.44166608847516  -20.07773036609234    1.17724200398295
C          -0.89462665019369  -19.89607244345158    1.50829281193557
Br          1.33117233923863  -21.65506027381356    1.74539479408627
H          -7.12067672930496    3.34913000151863   -0.85224553974825
H          -9.09450985423039    3.71410339492626   -2.26108342614240
H          -9.86883952946723   -0.50600831090642   -2.40064374798258
H          -4.40807472592533   -1.15968381999311    0.56664652217803
H          -7.36917189297477   -3.52005145475467    0.64846553083468
H          -7.10151109507683   -5.90489279975133    0.75568036975595
H          -2.75082153506258   -7.43840314209470    0.44214504497008
H          -2.49017348328831   -9.83095580169020    0.60972003652118
H          -6.43581264292301  -12.22427868503166    0.88282273699969
H          -6.17338374382464  -14.62181214381237    1.03295716182497
H          -4.77936030276526  -16.57115122627968    1.61352992559589
H           1.09056909346152  -17.24260685776435   -0.55523888880871
H           2.18791836152423  -19.30253926223586    0.21563773318643
H          -1.44356486888307  -20.62701756901806    2.08153120033481
