110
 SCF done       -200.269841966533          0.000703779460
C          -6.05372163439656   -0.27805719820593    0.23010690477564
O          -6.46359482829611   -1.26816005639673   -0.33152162922904
C          -6.71780323381906    1.04485062636624    0.25746894488598
C          -5.93438754376858    1.96342343459905    0.97750663105822
C          -6.37753984087224    3.26995884364470    1.13202694144667
C          -7.58794838582479    3.63489348799009    0.56383147088358
C          -8.34359403319343    2.71168121967965   -0.14889324243443
C          -7.92310937586873    1.39903271530419   -0.31343434304354
Br         -9.99288974048055    3.26083920409772   -0.91370758543088
C          -4.72898545202951    1.28636809834221    1.43914425969799
C          -3.63854209510176    1.88222436807339    2.00990223567089
C          -3.56212865786203    3.25913378648087    2.31045812886154
N          -3.45296664036304    4.36968006519785    2.57751614926859
C          -2.43046335901370    1.21538194169658    2.31300171379959
N          -1.40839695906738    0.74820144505894    2.54449371047662
C          -4.84475883494078   -0.12032229456696    1.08127812874068
C          -4.12348256097992   -1.12412896201483    1.64955085095481
C          -4.14272413406562   -2.51789410171156    1.33038826193321
C          -4.35982144830519   -3.07041718439254    0.07997897798035
C          -4.33675838123298   -4.45116342174885   -0.15907419842035
C          -4.10850439339282   -5.40256896685305    0.81792024282223
C          -3.86617523365868   -4.87759155113556    2.11860635069764
C          -3.85628793516862   -3.45586253069954    2.36070963420587
N          -3.58784284341916   -3.27528462859519    3.63769166935546
O          -3.43165643432216   -4.48940529993038    4.15906906851650
N          -3.59614512363546   -5.46335018389647    3.26987129912142
C          -4.12337022803775   -6.83290113908826    0.55931980497629
C          -4.47906708621222   -7.72479603710017    1.58129525593773
C          -4.53476940046808   -9.07015405211517    1.31274620553487
C          -4.22273296640552   -9.55984995261605    0.03340177457857
C          -3.84466518191623   -8.68728745294622   -0.97767465908664
C          -3.80483225760432   -7.33441631582481   -0.70974292517830
C          -4.36350991452888  -10.99945782574110    0.04703705255650
C          -4.77134372521315  -11.39804836794829    1.33299432340480
C          -4.95753570741047  -10.19695317394798    2.23031415950644
C          -4.08402877310669  -10.27312345601949    3.49163412191986
C          -2.59796050135119  -10.36178547176318    3.16396759835856
C          -6.44634814021382   -9.96188230278013    2.58086419411328
C          -7.13784505047935  -11.08408096075074    3.34370837123071
C          -4.93425546997322  -12.73138506299763    1.62095338504910
C          -4.73985604498537  -13.68997976373137    0.61762648735815
C          -4.34922480777087  -13.27676940708513   -0.66130112322324
C          -4.14998258833046  -11.94145846922433   -0.94868387293086
C          -4.98502748581146  -15.08628032238425    0.91073090543238
C          -4.58967127718525  -16.18106326036218    0.19894766311670
C          -5.04258108576305  -17.42050710062500    0.72867702807260
C          -5.82596766672043  -17.20367030243109    1.89301329942443
S          -5.94058871210157  -15.52235681633528    2.30898986961559
C          -6.46519598688101  -18.18175952363639    2.64089536269034
O          -7.14211477933017  -17.71530723611177    3.71943806361579
C          -7.55538778313555  -18.57627035060637    4.75323193089102
C          -6.34015409730380  -19.50826810637521    2.17825470229962
C          -5.51574014051132  -19.73259321090971    1.04115705536713
C          -4.85896361685967  -18.75149100465120    0.31031121923484
O          -4.14095663717199  -19.24091690370159   -0.73566690886387
C          -3.29336877211217  -18.41897968659170   -1.49794911202387
S          -5.43499153364151  -21.40938376629870    0.60459787674583
C          -6.50727409692852  -21.82840770047033    1.92705361622527
C          -6.89610389458902  -20.71782571375354    2.64230548641615
C          -6.92696349725380  -23.16989323180501    2.06544166981150
C          -7.58941664341614  -23.79074442036923    3.08418529750799
C          -8.30138195152557  -25.06339449266994    2.78666353037981
O          -8.18041432724094  -25.75352764691366    1.80289331407144
C          -9.22392076181961  -25.26462577583291    3.92772857489303
C          -8.99254337640094  -24.27157457776589    4.89658878701245
C          -7.87703359173846  -23.43474907769087    4.45478853043016
C          -7.11346959293523  -22.65104685823428    5.28219672580714
C          -7.42603728059158  -22.38690288700831    6.63062887224070
N          -7.65632256460558  -22.10365009595356    7.71915487120055
C          -5.88999734095983  -22.06621300837710    4.89987830336640
N          -4.87905459182545  -21.58330980467281    4.64984781519951
C          -9.76849277987401  -24.23726769626474    6.04543313448887
C         -10.75701046835998  -25.19580383501872    6.21071921390091
C         -10.95993274977607  -26.17594693298507    5.24798202546411
C         -10.19775577794003  -26.22792200397459    4.08796548793991
Br        -12.32023606069087  -27.47269275101552    5.52362518724950
H          -5.80891004374102    3.99852406457246    1.68630771887102
H          -7.94964663686856    4.64548292236558    0.67569608204678
H          -8.50678692154212    0.67731498080848   -0.86363611190585
H          -3.49435619912702   -0.88221331337330    2.49885818124913
H          -4.53529585076106   -2.41796914503035   -0.75896354762969
H          -4.53946964930006   -4.77917346043708   -1.16691332069331
H          -4.71412965830614   -7.34261302026743    2.56139895381861
H          -3.58548129950214   -9.05722152496829   -1.95821071882744
H          -3.48958849085767   -6.65399921262827   -1.48614375326786
H          -4.37338644500059  -11.14955248451402    4.07254762737708
H          -4.26737944487599   -9.38578809158420    4.10021234655721
H          -2.39043735387914  -11.23735463077675    2.55208942992042
H          -2.01779092794406  -10.43723481464478    4.08044465895081
H          -2.26975510535576   -9.47745016591273    2.62253753739895
H          -6.98783264675849   -9.78858329048950    1.64684400426039
H          -6.50265803800058   -9.04358148653565    3.16928844691386
H          -7.20666230735775  -11.98420166875214    2.73939099366880
H          -8.14854142615459  -10.77234866237565    3.59846090224643
H          -6.61607220406477  -11.31719577084508    4.26766803619480
H          -5.20108480213773  -13.06382471064965    2.61238368069800
H          -4.21406594787084  -14.01065241286762   -1.44057257829757
H          -3.83955576123671  -11.63738954697812   -1.93700913562523
H          -3.98329105697298  -16.08669254125734   -0.68034863980566
H          -6.77291554228588  -19.29164438189222    5.01889964526026
H          -8.47811197767646  -19.10245727614043    4.48871249557542
H          -7.75549309737101  -17.92910423121393    5.60698896675631
H          -3.86420810346915  -17.72660671765530   -2.12429202095924
H          -2.73881790943171  -19.10127239266072   -2.14171925537431
H          -2.59002906344594  -17.86867706644222   -0.86709366871237
H          -7.62581807438823  -20.78615948835047    3.42634999110137
H          -6.77225347177121  -23.79496595959590    1.19075595080508
H          -9.62909063659224  -23.48121498493300    6.80107126554785
H         -11.37500418471632  -25.18165225306102    7.09529532681554
H         -10.35378185180994  -26.98659480469268    3.33690037952147
