112
 SCF done       -230.383683606462          0.000597762952
C          -6.36144816978504   -1.59075147730769   -1.97208404257143
O          -6.20327390922901   -2.75296925329063   -2.27922105150610
C          -7.21861802530274   -0.60745035857272   -2.67163143170327
C          -7.24303692917045    0.60043809063256   -1.95288190267451
C          -8.00010680154802    1.66286642387743   -2.42486941636163
C          -8.71479714416643    1.50204469270242   -3.60254072136025
C          -8.67461107164760    0.29981069006163   -4.29652332148672
C          -7.92796636234912   -0.77912309830260   -3.84169919195486
Br         -9.66882196204559    0.12795986139775   -5.90514174840581
C          -6.39475962403177    0.45999219160499   -0.77206172852799
C          -6.09882393054234    1.45413650062833    0.12452792408942
C          -6.63555952137988    2.75701934428411    0.06533982235039
N          -7.04587504245841    3.82888695191016    0.07259380769745
C          -5.20467004319076    1.31903613384325    1.20738180802291
N          -4.47893184870431    1.28500752407226    2.09674267996768
C          -5.86152021414259   -0.88532641418919   -0.77046224720566
C          -5.20748074127558   -1.49165834885346    0.27225716804340
C          -4.53855948427837   -2.72537989317200    0.22717230479587
S          -4.40748138011194   -3.67090945721055    1.69536773048851
C          -3.57579138905780   -4.97433693016628    0.90068618425237
C          -3.36264248631317   -4.64611160661656   -0.42708233299571
C          -3.88289319625104   -3.38302529626149   -0.81815573017893
C          -3.53822482523074   -3.06826749729741   -2.15188546966405
C          -2.84139065560781   -4.07721923478176   -2.74989579618963
C          -2.33880421472054   -4.07651376555669   -4.12785069571264
O          -2.44548727862716   -3.14860563446767   -4.88914709574285
O          -1.74918975053082   -5.24370498392909   -4.41601649595010
C          -1.20314623095713   -5.40056497314515   -5.71780147331918
S          -2.54558772768355   -5.45473256898399   -1.72120166234060
C          -3.22221832959888   -6.15838787953706    1.59292050587269
C          -3.46074099075747   -6.44855082946885    2.91042981295936
C          -3.00571330346578   -7.72643306351214    3.29880615786303
C          -3.09430106175598   -8.33247894919151    4.57138886426265
C          -3.61172492820388   -7.63579795257173    5.72978991764638
C          -4.37100504085874   -8.14071055192301    6.74817291538016
C          -4.64317667582469   -7.18761669853663    7.75175825542448
C          -4.09270348940206   -5.95773801084164    7.52756688121630
S          -3.22198383170382   -5.96250794750613    6.03449665889023
C          -4.15912453900557   -4.74482910350537    8.38022639554696
Cl         -5.59287839588102   -7.55354658703297    9.13900166513169
C          -2.63682480858601   -9.64292584214586    4.66206857026853
C          -2.05704461643152  -10.34433548348474    3.57457984237750
C          -1.91344509161941   -9.71637322673880    2.31960147018177
C          -2.42580177261675   -8.42970799325846    2.21098379340824
S          -2.41319522566053   -7.46662488255556    0.75962213135095
C          -1.25308007416313  -10.38540734360446    1.21822180198928
C          -0.12308843464120  -11.15381962428026    1.25916454300950
C           0.24083466884889  -11.65098160266207   -0.00924139092545
C          -0.59571503161031  -11.27762117107896   -1.02245242316941
S          -1.86612041432397  -10.27950354559407   -0.40900429339636
C          -0.51431896333315  -11.63719685569747   -2.46086503319905
Cl          1.62575195588030  -12.64323989700349   -0.25847445838175
C          -1.70020725198154  -11.66545816830699    3.92795079158149
C          -1.95509556980929  -11.97127677574283    5.23571982556438
S          -2.66435994560905  -10.62448087298596    6.10181449679898
C          -1.72691942959470  -13.20747840013681    5.89839238270259
C          -2.02417971460826  -13.52465882424846    7.21023389051751
C          -1.67257210607655  -14.83804670169265    7.52057884998705
C          -1.09824059496260  -15.52199922430653    6.43473188930573
S          -0.99484395963321  -14.54868658113510    5.03477513502037
C          -0.76972120112747  -16.83720353498264    6.84644248995383
C          -1.14557613228166  -16.98439719037168    8.19789664356382
C          -1.71466540274387  -15.73257446993186    8.66650804293019
C          -2.15750602913259  -15.45822412184286    9.92664254992011
C          -2.68612709051831  -14.19944079842334   10.28266183358214
N          -3.12201067837574  -13.17809985328213   10.56676966498837
C          -2.10837653252248  -16.43125025765807   10.94754495912009
N          -2.06389159785493  -17.23641350426810   11.76262912378381
C          -0.83725460541299  -18.23547256168789    8.71201180412554
C          -0.22040629858343  -19.05247844422964    7.77391942109104
S          -0.06181271615589  -18.24764202262768    6.21446555469469
C           0.22339520646125  -20.38377349453697    7.90830107148051
C           0.46883003317580  -21.09659273279767    9.04431203749342
C           0.51125189991960  -22.58259499715100    8.95374704913658
O           0.56501767904274  -23.24509716919137    7.94506804052566
C           0.41805836684999  -23.05557912123552   10.35204665610705
C           0.45016817998050  -21.95124448811787   11.22336339566434
C           0.63612316120040  -20.73315500832850   10.43595499591778
C           1.13807507095388  -19.55750708116651   10.92963800412496
C           1.40213156939102  -19.32759543904009   12.29700095261851
N           1.63839123214370  -19.09031215817625   13.39413654971128
C           1.54573524619579  -18.47474852506328   10.12625510747570
N           1.91584504583831  -17.57943715345336    9.51022023842503
C           0.33193437710193  -22.14875548965305   12.59091747698206
C           0.19903769099041  -23.44426938870227   13.06695054683964
C           0.19063916885094  -24.52296828399744   12.19142811097930
C           0.29573834166613  -24.34847342382767   10.81762254533062
Br          0.02272956281377  -26.27976688187702   12.89212887503297
H          -8.04966249532746    2.60200102956333   -1.89880568687161
H          -9.30976173330775    2.31772492538284   -3.98369260990915
H          -7.89376687259729   -1.71607725040934   -4.37561247002043
H          -5.24200569801894   -1.01811862281397    1.24599823413343
H          -3.76384397968527   -2.14943902269654   -2.65819489759078
H          -1.47696397769678   -6.39417133827284   -6.06857801256313
H          -0.11693860493389   -5.31111857171628   -5.66249457072375
H          -1.60186955669547   -4.63328257898147   -6.38393286015244
H          -3.96523450702386   -5.76064771694425    3.56375546560674
H          -4.76260320395422   -9.14033493254321    6.77402967870200
H          -5.04923703386484   -4.78228454761148    9.00434981251800
H          -4.18267897361159   -3.84559553833359    7.76894791825759
H          -3.28668996796375   -4.68870863455004    9.03279507548698
H           0.46017737891194  -11.32180268363673    2.14549845811618
H           0.51696042170343  -11.57105803595047   -2.80418464549066
H          -1.13493443749453  -10.97165361994212   -3.05457912761911
H          -0.85423766968360  -12.66178363793508   -2.61770375622626
H          -1.29540355526405  -12.37971298515102    3.23416459564790
H          -2.47444617069004  -12.82273424072190    7.88897245879633
H          -1.08482699170911  -18.56656287615430    9.70393566113272
H           0.32590210034532  -20.95029054909076    6.98744144971940
H           0.32716033019560  -21.32275598077502   13.28331626079596
H           0.10166501005594  -23.61833144332216   14.12750374927390
H           0.28335356797383  -25.18358057432471   10.13460035826718
