89
 SCF done       -173.159183845229          0.000663676519
C          -1.98547086940206   -0.89090451398980   -0.74104126533347
O          -2.56972832742204   -1.34035010546460    0.23308241494845
C          -1.22669285287142    0.37931371009664   -0.78936024325432
C          -0.72730354437275    0.56780788972850   -2.08951006435978
C           0.03844690111346    1.68802313331508   -2.37070537834737
C           0.31460349920112    2.58650487515030   -1.34764006866982
C          -0.17733116108783    2.36499297878298   -0.07210539576746
C          -0.97479939142282    1.27022533667583    0.23150662119821
Br          0.26383299292064    3.57859588352604    1.31287448421329
C          -1.14219622131793   -0.57094424016157   -2.91434595638110
C          -0.79113258840716   -0.75454675106434   -4.23174060585818
C          -0.07037178497474    0.18691824529349   -4.99020921681237
N           0.50663091966832    0.91824678558862   -5.66261198592334
C          -1.06571178143593   -1.91095842476510   -4.98657115726123
N          -1.21393969163217   -2.83671236308218   -5.65122123193198
C          -1.91900099411340   -1.45200294210256   -2.08369312184270
C          -2.61160841611097   -2.58117089365651   -2.50142247479125
C          -3.29125051621475   -3.52119735931410   -1.74549133237613
S          -3.31439853881573   -3.64180870763210    0.00163974386956
C          -4.14503759086189   -5.17854764539717   -0.01620387109746
C          -4.49971036719866   -5.50182143433175   -1.33425662667284
C          -4.00895636953835   -4.61237170829728   -2.30373318785892
C          -4.34607786729679   -5.01405000175528   -3.61225873753832
C          -5.07591110404343   -6.17166230501893   -3.61836157062657
C          -5.61048112563301   -6.85896160817070   -4.79360377248664
O          -5.49694840722800   -6.47019215773823   -5.92862825741081
O          -6.25550837532315   -7.98384958958230   -4.44342639243859
C          -6.82067097847381   -8.73174739463537   -5.50826919512930
S          -5.36713858359032   -6.82280842620437   -2.02759122244037
C          -4.39180105947209   -5.93556326946706    1.12551110373769
C          -3.78763929813313   -5.74456148550474    2.35624786352687
C          -4.02992991886361   -6.47859957664050    3.53830424606312
C          -3.22900983788038   -6.12711877352396    4.59059467644385
C          -2.30369721482736   -5.11783273772466    4.27320508397856
S          -2.51176065270904   -4.58384680668634    2.61970010889355
C          -1.32248817321340   -4.52234132023047    5.05842896092381
C          -1.15382517502604   -4.53474296045344    6.45751181212060
C          -0.15909582085552   -3.70760899614743    6.89556656543613
C           0.52757950671456   -3.02405226082778    5.86184985046191
S          -0.11733656671436   -3.51910543354297    4.30239861758720
C           1.42561829629338   -1.99202511843485    5.99160199486378
C           2.03397233426751   -1.34649640444449    4.88229355920452
C           2.39499632584261   -2.08442170685213    3.74653658333642
C           2.70238553715921   -1.47777699019161    2.55168635426141
C           2.64237306141474   -0.08777619308387    2.38630052959478
C           2.56808942498897    0.71170372984537    3.57056766191208
C           2.77702687473904    2.08917860229380    3.64558107501744
Si          1.96548165035536    2.55069641792149    5.19399982122667
C           2.23534252157948    0.92658647435868    5.95211651058182
C           2.26888035170221    0.06352506036602    4.85441324867624
C           2.68768837175672    0.49418583708385    1.09314395369746
C           2.31987584943811   -0.07583106465570   -0.09639982532554
C           2.77569992047552    0.53389637456577   -1.36554636696436
O           3.27227392856203    1.62928819718930   -1.51165637883655
C           2.52926371266049   -0.49428521455659   -2.40277065277681
C           1.86385977028895   -1.59112497524890   -1.82187520033562
C           1.59966756571839   -1.28647327566198   -0.41704260251327
C           0.64262500134499   -1.90581919107237    0.35276734923422
C           0.02433597765411   -3.11354631391967   -0.00925129497536
N          -0.45417240142304   -4.12966036916900   -0.25312608496991
C           0.15063130412664   -1.34578274916973    1.54812007521665
N          -0.32435539549015   -0.85089071692344    2.46902664070405
C           1.54047256099990   -2.68979515757137   -2.60390328349091
C           1.89222973302536   -2.68224138997686   -3.94581004938760
C           2.54772575743499   -1.58981514798977   -4.49971318081709
C           2.87320004989655   -0.47336539509867   -3.73760431530721
Br          3.01819890710858   -1.63084595587773   -6.33339196029852
H           0.43052092707503    1.87885659663943   -3.35570601103957
H           0.92956330754810    3.45001420076794   -1.54813973494333
H          -1.36619018951113    1.10166095210106    1.22271691635910
H          -2.63247795096416   -2.77215457931227   -3.56718680466709
H          -4.07771947072851   -4.49990789194489   -4.51723916612404
H          -7.28796415542000   -9.60105765588607   -5.05329308057193
H          -6.04299000923333   -9.03588082038252   -6.21188039367402
H          -7.56074008720191   -8.13150873314534   -6.04173721869021
H          -5.06942344219277   -6.77409969533749    1.02495575289348
H          -4.78502067398191   -7.24364269311146    3.57954513445775
H          -3.26327451358701   -6.59049349738449    5.56050969436437
H          -1.79586560210451   -5.10681957377228    7.10334664897033
H           0.09059205387494   -3.55525965161408    7.93098211798426
H           1.57634281573103   -1.59502420732520    6.98568139975130
H           2.44125381144097   -3.16115547859782    3.81642725208049
H           2.99417070528348   -2.08993188611343    1.71003986908005
H           2.92928210572161    2.68210223757096    2.76019076503319
H           1.94268389255506    0.56619159885982    6.92480002103337
H           3.08603535999002    1.49826652387429    0.99960847277923
H           1.03581411461963   -3.54904156154045   -2.19338841410728
H           1.65203722199874   -3.53094717068792   -4.56764685005565
H           3.37160013250424    0.38048897724611   -4.16912035530977
