96
 SCF done       -195.545371967225          0.000486166063
C          -6.40274694506410   -1.88108481286669    2.92257517140519
O          -6.12637273795985   -3.06114301029241    3.05893060608451
C          -7.48435642892428   -1.15229374212180    3.60662070059655
C          -7.50575182773338    0.17930025409157    3.15457854541996
C          -8.44059531465747    1.05785965046768    3.68207910024950
C          -9.32021624253715    0.59680923571758    4.65242608996757
C          -9.27129039085675   -0.72102864087164    5.08718617410922
C          -8.35650199609679   -1.62438793631168    4.56252916821617
Br        -10.47277643752238   -1.30950644148641    6.43882123225854
C          -6.44188548384562    0.35463798048713    2.16437333912756
C          -6.17694678637947    1.51607052138830    1.48275289662360
C          -6.91425884830325    2.70817376902601    1.64025065191076
N          -7.47633541324346    3.70585935830544    1.72102976825395
C          -5.15107171920352    1.68869681674003    0.53160364639273
N          -4.33753330629815    1.90256017785431   -0.25132389737035
C          -5.74749764166997   -0.90999869808503    2.04905888791788
C          -4.64945427895760   -1.17814230073753    1.26086885803659
C          -3.92250238830472   -2.35985131417746    1.12865683577270
S          -4.21056939941455   -3.87794095127974    1.94468547629337
C          -2.84048695825576   -4.65263091060334    1.17941619160938
C          -2.20956953539207   -3.76762433205608    0.31458161086594
C          -2.79610647367275   -2.48130546453230    0.28741026568584
C          -2.10622824555663   -1.59841656205066   -0.56940813974792
C          -1.03624782033418   -2.20351985368313   -1.16604447789110
C          -0.06557233234705   -1.62935792351194   -2.10376530027684
O           0.84767517761360   -2.24943486951963   -2.59073229738511
O          -0.31606861688077   -0.33779984447877   -2.34454028480893
C           0.57852545835986    0.31053709709895   -3.23779664942944
S          -0.82333079884428   -3.87563295315212   -0.71849336109284
C          -2.53497220046957   -6.00378978536280    1.48030629137388
C          -3.16648222444526   -6.66105755979721    2.51842354646946
C          -2.95521519942548   -7.98577455959368    2.86552986231463
C          -2.03864070667049   -8.83233168754655    2.09962345850895
C          -1.29393557351227   -8.39180611504777    1.05999337261769
S          -1.32722607669571   -6.78272855343597    0.46809839627804
C          -2.11841937806300  -10.11312279796453    2.70851026616967
C          -2.99951445219113  -10.07852199159321    3.79597811760008
C          -3.10770847560243  -11.34846734334733    4.40936121850489
C          -2.32782312485744  -12.27577577462159    3.79483543283341
S          -1.42879774031134  -11.66271200674564    2.45103169271254
C          -3.52163552312202   -8.74111729634867    3.92357195592396
C          -4.36817298963533   -8.20309650727738    4.91334471852996
C          -4.82182131151705   -8.86436346751877    6.01646649263061
C          -5.58640138391759   -8.28837833939003    7.05353840892587
C          -6.06750712893065   -6.98919097192580    7.20292955206698
C          -6.71684886261943   -6.80627807074771    8.41655042475001
C          -6.74799297031949   -7.97179793354153    9.21238038764734
S          -5.97897987865595   -9.29113843332517    8.44577954002602
C          -7.38552785402935   -7.67466629904802   10.43351667219297
C          -7.76043801726910   -6.31028583191174   10.41947683231644
C          -7.37061965902494   -5.72976659666037    9.15091479434410
C          -7.59126421941041   -4.44524154703666    8.74683831397834
C          -7.16955662507459   -3.95535074480385    7.49644189597482
N          -6.81911094850469   -3.53692783912850    6.48751100326968
C          -8.24944488013244   -3.51360939819137    9.57831903134727
N          -8.77051630635225   -2.75969403280938   10.26730927246012
C          -8.38239296995480   -5.90687711793558   11.59000390622485
C          -8.50090560354520   -6.94086933449095   12.51110407314031
S          -7.79756755861677   -8.44019797965763   11.89624680374479
C          -9.00485946964945   -6.91100969799505   13.82287198130670
C          -9.75458109092099   -5.94847452716820   14.43901293952132
C          -9.75872743701727   -5.90129943657593   15.92485166698530
O          -9.34880313978532   -6.75131843982806   16.68068738787586
C         -10.31487125102063   -4.57274150461789   16.26571818975011
C         -10.73923977585081   -3.92821185115472   15.08970314765003
C         -10.53603893349534   -4.83198926424750   13.95718321632682
C         -11.19822699417009   -4.74126788291164   12.75969091048342
C         -12.06712687242424   -3.68231734511066   12.42178470939096
N         -12.79137871492115   -2.84986829618053   12.10764380950091
C         -11.16926267863918   -5.74574233437890   11.77320139082450
N         -11.18712283604897   -6.55428693097016   10.95816921062624
C         -11.25488827024437   -2.64303960268401   15.15519896430435
C         -11.34969491975642   -2.02682843787092   16.39422210515049
C         -10.94210689831844   -2.68766941582296   17.54552924840567
C         -10.41432492873282   -3.97152318990280   17.50320435717439
Br        -11.10126887419199   -1.80670345433295   19.22121537902705
H          -8.49694033185878    2.08617933991431    3.36491959668992
H         -10.04714136837741    1.27139401124016    5.07801062346733
H          -8.30124390492136   -2.64780950090273    4.89794111894537
H          -4.26944193544017   -0.36866918904398    0.65189630744508
H          -2.36649835705812   -0.57089223082901   -0.74738251459080
H           0.22956664947745    1.33625621426527   -3.32059765343059
H           0.56485201360503   -0.18187178619765   -4.21220806761256
H           1.59622417139911    0.28002887095042   -2.84315721752786
H          -3.87818264496023   -6.07804208959481    3.08686844397018
H          -0.60953093285989   -9.03183718223739    0.52577144021050
H          -3.72885349998190  -11.59177911899943    5.25121090730001
H          -2.22042261088769  -13.31171377405991    4.05080355356816
H          -4.63720979283423   -7.16303877690825    4.79345118367020
H          -4.55714329327865   -9.90062840644037    6.15790972518741
H          -5.93613803268021   -6.22460488696181    6.45937549272956
H          -8.68760362899638   -4.89851974630744   11.80080638986505
H          -8.68835099473933   -7.72010189182858   14.47447537256326
H         -11.56630021684292   -2.11282397365015   14.26996424886841
H         -11.74263762072334   -1.02428501959289   16.46582583798665
H         -10.09135700741330   -4.48475763469941   18.39562005361633
