97
 SCF done       -190.256352769990          0.000897348549
C          -8.49905744934844   -6.20055263847740   -2.82767915413488
O          -7.97978848769803   -7.03348891636734   -2.10286083100527
C          -9.23882908820726   -6.46822686754345   -4.07879190048381
C          -9.69978142284807   -5.25128181834203   -4.61209573302903
C         -10.41935726023288   -5.25524313037013   -5.79704463752678
C         -10.66509408340321   -6.46758077466990   -6.42663392773364
C         -10.20028908151820   -7.65527344500400   -5.88035239577381
C          -9.47790604506939   -7.67820373093761   -4.69411092336018
Br        -10.55969439504871   -9.29084167792601   -6.77833636301337
C          -9.27659048469102   -4.16195460955002   -3.72988599035691
C          -9.55870924704514   -2.83169062455971   -3.92651214341603
C         -10.30837012927649   -2.33552533701080   -5.01247442720264
N         -10.91148279825847   -1.86742734606305   -5.87025655009583
C          -9.15313129323370   -1.77589275418486   -3.08582466873075
N          -8.85731859693419   -0.86501529545007   -2.44992606763253
C          -8.52719817327876   -4.75259302496515   -2.64641116949120
C          -7.91613115843039   -4.06968322546571   -1.61365788043486
C          -7.14929383698347   -4.54545762341541   -0.55717112397344
S          -6.72518353397555   -6.20029850997958   -0.19230131849987
C          -5.73304007750486   -5.74768433117170    1.18523495336060
C          -5.77407704751619   -4.35677355708071    1.35829391777747
C          -6.56330075140844   -3.68404311388613    0.40104741596461
C          -6.60480279538902   -2.28562052930907    0.60124526624263
C          -5.88708262422899   -1.91877704393355    1.70298753324174
C          -5.54451212857550   -0.61023489240060    2.26351683631958
O          -4.73059228141070   -0.51062551643632    3.16154119566876
O          -6.17116952488620    0.40022784591723    1.68916657531296
C          -5.84217038080740    1.71275272783373    2.14720665953859
S          -5.14474372537333   -3.25529221414172    2.53378368421003
C          -5.09377342780857   -6.78315167167573    1.87862335286854
C          -4.05895997258814   -6.70437330382516    2.78684373683047
C          -3.53252089071553   -7.76312495688117    3.56971005667069
C          -2.52823065543060   -7.39533300819775    4.41983446905589
C          -2.19859355179140   -6.02709307087186    4.33963569050516
S          -3.15915122331557   -5.24681452609537    3.10623983277858
C          -1.34180583234014   -5.22998631248219    5.07808673650605
C          -0.44263538350683   -5.54500560842321    6.12054152858323
C           0.19477182018729   -4.45999986741286    6.64214392484683
C          -0.17228739551272   -3.22141747917084    6.04713357690823
S          -1.34382083960778   -3.50861957726766    4.77039547018665
C           0.34609700667026   -1.98379603547091    6.31234339055908
C          -0.08036210120222   -0.76759687111090    5.71415216234266
S           1.13786565499842    0.41196164794596    5.27969769173797
C          -0.05388805289279    1.48931045350273    4.60184210781965
C          -1.31840458629960    0.92819229573784    4.68943152728265
C          -1.34137328214546   -0.31565055529837    5.35208165166472
C          -2.67056369703905   -0.87615023153911    5.75185135833378
C          -3.45257693419428    0.16020786203088    6.55183128203255
S          -3.58755862264117    1.75801049107095    5.66002400336819
O          -2.93274205059980    2.77157247273542    6.44686403520958
O          -4.95823799881171    2.00386860065599    5.30031499737619
C          -2.57994503630320    1.47219956115515    4.16643120948385
C           0.34635612762381    2.74781883474817    4.07862809404431
C          -0.39879433874306    3.88188111918368    4.14010986050645
C           0.03662853211577    5.13585233324502    3.63776697671791
C           0.88296013153772    5.38891258488504    2.59895318304938
C           1.56405930596251    6.70771794278705    2.50500665899087
O           1.30488552471811    7.70974283269155    3.12711380719992
C           2.65807588344847    6.50507858671239    1.52558585793292
C           2.55967121138356    5.21492573435176    0.97283869743196
C           1.37137849441582    4.56136442017064    1.51655268499060
C           0.71113830524705    3.51684841311913    0.92169952936594
C           1.20002317472313    2.80791489070696   -0.19388036731858
N           1.56335011932966    2.18618250723221   -1.08790117286094
C          -0.57782745747325    3.09717248919263    1.29849182277135
N          -1.65123310916903    2.75468089248640    1.52031824918860
C           3.50029593174423    4.78711033339509    0.04777385198148
C           4.51688985024882    5.65584718019243   -0.31819317097626
C           4.58699663046189    6.93163654370603    0.22689467456184
C           3.66106263577630    7.37878619386097    1.16070378692136
Br          5.99007952376557    8.09027704614380   -0.31692977312025
H         -10.78918870255960   -4.34571965267194   -6.24065138369308
H         -11.22254722675294   -6.48711432209533   -7.35048885393220
H          -9.11305076985552   -8.59882892750441   -4.26584504699229
H          -8.02142530632761   -2.99325555968736   -1.61618543996439
H          -7.12149157294262   -1.58114502357688   -0.02513971624329
H          -6.64611419203875    2.35735440002710    1.80233377148608
H          -4.89296252408085    2.02617764904373    1.70746424307439
H          -5.76157298538966    1.73884859114631    3.23707806422295
H          -5.44696479888914   -7.77907948212352    1.64120898110735
H          -3.93464532854091   -8.75863395309795    3.50342668656269
H          -2.04162032001948   -8.06255545464052    5.10860763305240
H          -0.29116344988672   -6.55688073063353    6.45162168601191
H           0.91056266458084   -4.50166440355626    7.44391450249924
H           1.21775938637629   -1.93300601535494    6.95174422857217
H          -2.54779331114770   -1.76893263438029    6.36573193960688
H          -3.24397533999093   -1.14800584840973    4.86160304802457
H          -2.96075093643074    0.40109130476039    7.49077125948200
H          -4.47253386501126   -0.16523622741522    6.72949518089571
H          -2.47727235752354    2.39026473385629    3.59984594433526
H          -3.13900596964738    0.73257917825486    3.59715810236618
H           1.35973644556050    2.80322475383786    3.69634652017332
H          -1.30973739149112    3.88166026842655    4.72333231646251
H          -0.28707609101726    6.01321465899342    4.18882848751739
H           3.46290853545521    3.79864866834625   -0.38071277223062
H           5.26033413551698    5.34063878396020   -1.03409914214053
H           3.71450974950268    8.36845603176337    1.58695588659990
