98
 SCF done       -200.688355148048          0.000541602954
C          -5.05702437814932   -2.87814899278422    5.86604937819474
O          -5.16539234456072   -4.07210210868760    5.65124607766837
C          -4.94459836192696   -2.23518725621840    7.18920660750726
C          -4.86150990773701   -0.84116168782889    7.02323549455712
C          -4.73746732016927   -0.02858989057272    8.14102818083773
C          -4.70098443976650   -0.61875768674882    9.39560799750410
C          -4.78931691182630   -1.99795534280896    9.53471500748967
C          -4.91260297042473   -2.83295777465716    8.43178469705336
Br         -4.73583449057216   -2.75766502446703   11.27427714381084
C          -4.92962718688542   -0.53178629538167    5.59578658209509
C          -4.96725062154091    0.72938065055722    5.06226462500873
C          -4.91046281812500    1.91314445287136    5.82896246164362
N          -4.86779172226487    2.91123661903040    6.39394515567338
C          -5.09545817188303    1.03793918548188    3.69097656729251
N          -5.21112045170998    1.37129894768388    2.59814177127149
C          -4.99861925229583   -1.79382980240319    4.88190503054579
C          -4.94532444415162   -1.95689669608245    3.52012136765928
C          -5.00837986288621   -3.12267733975468    2.74343483152058
C          -4.87101891212122   -3.08683042622305    1.34910667609849
C          -4.98067936222480   -4.33670276451740    0.77361265927378
C          -5.22271226897786   -5.34956483542046    1.73604062238463
S          -5.28190736380050   -4.76412755843008    3.33339916680597
C          -5.32692096415857   -6.58165566635315    1.05165395494615
C          -5.15086551906277   -6.36110150289361   -0.32759988742092
C          -4.92427155815980   -4.94113087492194   -0.54720292322939
C          -4.69876354334808   -4.31992167487348   -1.74013625991059
C          -4.66610376121783   -5.03245544546434   -2.95736225927749
N          -4.63981566885606   -5.61545940869404   -3.94441903378398
C          -4.47640457003649   -2.92975037579117   -1.83732182059585
N          -4.29045023773285   -1.80216530773526   -1.92555606233553
C          -5.23943838272453   -7.52706578298452   -1.08192265170107
C          -5.48796892655527   -8.63991883377982   -0.29349676649422
S          -5.60882124368451   -8.22650898892469    1.41418396701207
C          -5.64114662135946   -9.98804221898152   -0.72455775189346
C          -5.94562109993772  -11.01351285696399    0.14166635537200
C          -6.10624808546615  -12.34474949934387   -0.22605858928117
C          -5.94594353405844  -12.77186396867538   -1.61708252582761
C          -5.64938340120955  -11.93536441092983   -2.63644781959770
S          -5.41367821835804  -10.24811965593027   -2.44993114408267
C          -6.17245973706332  -14.17511951267751   -1.60612772271978
C          -6.46036164681177  -14.60728868254429   -0.30767093240084
C          -6.68952531138083  -16.00164780533840   -0.26743191417011
C          -6.57321670933167  -16.56845839407824   -1.49707030393784
S          -6.18345424046762  -15.44910837786582   -2.75546238544194
C          -6.42641830959308  -13.46671198416220    0.57442499481755
C          -6.66485992397014  -13.40016902087566    1.96053179379489
C          -6.99186277680896  -14.43699404900913    2.78307083956563
C          -7.22933993863830  -14.29413469002768    4.16726866976452
C          -7.19230753342842  -13.14142088226029    4.94782039273703
C          -7.48880418820234  -13.39772735824130    6.27769916830696
C          -7.75728692035599  -14.75764109190548    6.53823210476260
S          -7.64058780611302  -15.71213096021016    5.12310503930873
C          -8.03585116379099  -14.90701391441648    7.91227627271039
C          -7.94786185505551  -13.63488583825847    8.52792362498258
C          -7.59682658615231  -12.65204059410711    7.52408719036033
C          -7.38516877200372  -11.31640424143457    7.71116152245150
C          -7.50570271748395  -10.72498737343748    8.98592937355853
N          -7.61319443640951  -10.26016279254725   10.02876673153419
C          -7.04213992737003  -10.46095101555133    6.64438008530905
N          -6.77172943953973   -9.77698268080111    5.76407309494388
C          -8.17597548850607  -13.67770046423781    9.89423061707460
C          -8.43674965296599  -14.96482423804432   10.34801394578346
S          -8.42675031409433  -16.13400442077367    9.02411622021679
C          -8.74058647064048  -15.40650785417576   11.64797973712384
C          -8.55533978918982  -14.76521442225738   12.84027334407532
C          -9.34330907402704  -15.21558126050722   14.01774642514945
O          -9.99514305848892  -16.22947102151844   14.11103445182322
C          -9.19678171868881  -14.13304984655112   15.01627862869775
C          -8.29147187206961  -13.17097123347636   14.53294722884726
C          -7.76689701957170  -13.62276444438727   13.24414662454687
C          -6.58654499197363  -13.19397605456895   12.69298878228797
C          -5.79882326587118  -12.15452569062193   13.23094285681627
N          -5.11731195496675  -11.32194955542639   13.62950467358365
C          -5.96575511978839  -13.80508748122338   11.58675221833971
N          -5.41028927967829  -14.28689230331898   10.70465870190551
C          -8.02852203050406  -12.03412938545966   15.28163486617517
C          -8.66214703793078  -11.88259615023311   16.50605552738228
C          -9.53698024911540  -12.85410277196390   16.97448692374967
C          -9.82379007739796  -13.99559492554661   16.23718251797034
Br        -10.36970289183104  -12.60950411353928   18.66420811827126
H          -4.66547044044302    1.04322513143729    8.05913484487271
H          -4.60262361348690   -0.00071735113569   10.27473793110278
H          -4.98022435141179   -3.90512223098862    8.53197880311573
H          -4.81993027890252   -1.06022014170167    2.92498674548775
H          -4.69954521549615   -2.16904095303663    0.81467875181733
H          -5.13469157930668   -7.57885046436850   -2.15065530243999
H          -6.06634603346198  -10.74184238719520    1.18212101115005
H          -5.54024268381863  -12.27497130297689   -3.65427583258412
H          -6.92670307661753  -16.57630373009138    0.60840836261577
H          -6.69457610395077  -17.60265503167438   -1.75378035652791
H          -6.58049981923900  -12.41652556928629    2.40047050399661
H          -7.08404365222432  -15.43465736236445    2.38418068719427
H          -6.95963250114075  -12.16944208194892    4.55521266684417
H          -8.20235681486098  -12.81529292498918   10.53513405697890
H          -9.25840457453430  -16.35811753097600   11.72279651607370
H          -7.35944548590094  -11.26635943205049   14.92867889426739
H          -8.47452491021237  -11.00230404181517   17.10144016822028
H         -10.50768866779653  -14.74894559650034   16.59608461385820
