92
 SCF done       -178.119624257400          0.000754678278
C          -6.25712301206823   -1.66493385086860   -5.25827696019697
O          -6.03192462012943   -2.80744746675765   -5.63388476927008
C          -6.17814457521210   -0.46984476378024   -6.11903966858011
C          -6.49502447310815    0.67420251332102   -5.36826713218764
C          -6.48593067208344    1.91648318679594   -5.98532338258137
C          -6.16167954712057    1.99249500681220   -7.33226612309762
C          -5.85078552550621    0.84722615931399   -8.05246744498137
C          -5.85337886108903   -0.40735282146477   -7.45812287537435
Br         -5.41269994299365    1.00068919027080   -9.89510992164988
C          -6.78705651729739    0.26173917160461   -3.99566841508534
C          -7.12356368945304    1.12300282025306   -2.98228427854327
C          -7.23177866866239    2.52155918552958   -3.13910405099262
N          -7.33867501635909    3.66332045329677   -3.19259848727801
C          -7.40865459617368    0.77958535267907   -1.64383955984900
N          -7.65767456370338    0.60272171775715   -0.53620706725882
C          -6.64691615185758   -1.18250689892686   -3.92804046799991
C          -6.86044859099356   -1.92047074533472   -2.78183350887637
C          -6.76901409199014   -3.29414910611318   -2.53636395996013
N          -6.42129689487824   -4.26561500493932   -3.44920467295076
C          -6.44189089809584   -5.45900000667418   -2.82626362453425
C          -6.23118527571553   -6.82072188391988   -3.01091136158701
C          -6.47571443130338   -7.42556807487146   -1.76994777237097
N          -6.82803503434020   -6.46079796397369   -0.84714993994700
C          -6.81772024184107   -5.24769767599274   -1.46160417215953
C          -7.02305776623334   -3.89724305380005   -1.27734320366689
C          -6.39856284499055   -8.78836540082029   -1.39077143431551
C          -6.07142374112636   -9.80469242747477   -2.23083937154280
C          -5.97188860702595  -11.18356930988511   -1.89345508327031
C          -6.16556743400382  -11.71229682765698   -0.63196723243905
C          -6.06779980240703  -13.05749047024951   -0.30435219366227
C          -5.84557937578689  -14.07357521161381   -1.34002928793113
C          -5.60609538769904  -13.78909041553938   -2.64080560184091
S          -5.55262351298048  -12.19606528529112   -3.26523918572824
C          -5.95026606143312  -15.32878473854962   -0.67933044839807
C          -6.21278125965767  -15.12388492434018    0.67498485997005
C          -6.33725383232702  -16.33543116395535    1.38841173237305
C          -6.17078756221401  -17.40785546930621    0.57102170956328
S          -5.85349451824916  -16.99569001057817   -1.08191809064694
C          -6.25205292017767  -13.70949035426615    0.94427641585010
C          -6.42660351739162  -13.20466206834104    2.24233851273904
C          -6.19657964523027  -11.93457880569447    2.69752447771396
C          -6.44331526099484  -11.52461327079873    4.01966135693975
C          -6.19026860425438  -10.15490683601798    4.48387607317041
N          -6.51223855941562   -9.92839824185718    5.72038093912125
C          -6.99501112327482  -11.11822390381778    6.18985196372832
C          -6.96192296772954  -12.15210147199534    5.14843049045767
C          -7.45956714956233  -13.38397857967677    5.68604689142311
S          -7.64120627367586  -14.86611863206510    4.98793027882136
C          -7.81173601860003  -13.06631959618527    7.05305764084266
C          -7.51341373960154  -11.66703685461485    7.33990707896455
N          -7.84891893727571  -11.35774245218710    8.62533273328033
C          -8.28265930265833  -12.46419856761127    9.15165666768747
C          -8.29326731275601  -13.60576593742163    8.22544757969973
C          -8.77477376593200  -14.91532979379679    8.47782067046973
C          -8.81623936761694  -15.56222277632675    9.67165062672449
C          -9.71620513429424  -16.72998336633482    9.87095822802139
O         -10.29048757961027  -17.36472128977622    9.02005989116858
C          -9.79800390705448  -16.89597254914795   11.34117647889996
C          -8.91802441289643  -15.99466815010303   11.96987690188722
C          -8.18893041529233  -15.25631474543099   10.94233394138531
C          -7.00105115960880  -14.59883569238353   11.11601739877242
C          -6.40266274615750  -14.38565481007024   12.37517679899407
N          -5.89256443435937  -14.18196809906356   13.38265353513624
C          -6.19079258050266  -14.15821260369518   10.04618143725925
N          -5.46085673324396  -13.85747743349467    9.21366279585661
C          -8.84984607151020  -15.95061589753416   13.35473656871146
C          -9.65366378629815  -16.80926926718422   14.08842986013622
C         -10.50566996540064  -17.70109244178236   13.44850484975321
C         -10.59486970616944  -17.75962203153338   12.06410060655092
Br        -11.57838214706415  -18.86598988154932   14.49701530379089
H          -6.72335367126617    2.82027640313749   -5.44964805746412
H          -6.15092385909509    2.95204642203241   -7.82595188033625
H          -5.61334758406828   -1.30199504494466   -8.01142952123401
H          -7.15028740870907   -1.36072082519512   -1.90313058312767
H          -6.19799651508710   -4.03635105774561   -4.41982699724792
H          -5.93868045783030   -7.32207686522284   -3.91014803823073
H          -7.06082774603161   -6.64282657638042    0.11401399004693
H          -7.31225103927521   -3.37137227966867   -0.38971890834365
H          -6.62595748159574   -8.99531143855200   -0.35357406037310
H          -5.86227631779055   -9.56678343939241   -3.26424858982184
H          -6.44052651835354  -11.01886530950539    0.14672562513547
H          -5.42623744227241  -14.55544769744859   -3.37794875753880
H          -6.54559800524429  -16.41283065073538    2.43984834806715
H          -6.21343690414546  -18.44671439562069    0.83373534928575
H          -6.74857878584940  -13.93533570359629    2.97400200585208
H          -5.76935537267295  -11.18400217525102    2.04679462499019
H          -5.76847153614318   -9.37169701520828    3.87583606197339
H          -8.65075679496501  -12.48134767994865   10.16284490582738
H          -9.21920224937296  -15.43743171175011    7.63525171835695
H          -8.19836725822653  -15.26073244796586   13.86641647965385
H          -9.61871181154753  -16.78689053571061   15.16679870118872
H         -11.25731239780218  -18.44926735902423   11.56429503868778
