96
 SCF done       -196.397421156987          0.000909171854
C          -4.29421965973300   -0.00999128514737   -1.97207301225582
O          -3.46464070180839   -0.86467893524669   -1.75006797943476
C          -4.02322133539378    1.43769640230870   -2.11729626110374
C          -5.21578287600427    2.11911388617026   -2.41082132615886
C          -5.18772704810570    3.49359137847523   -2.60073617626341
C          -3.97552395856600    4.15793043503780   -2.49100083291048
C          -2.81010354721533    3.46265961140927   -2.19528777285362
C          -2.81192163276978    2.08748007316979   -2.00462483196068
Br         -1.17597596987419    4.41949565918740   -2.05252746203172
C          -6.30935294479331    1.15134279636385   -2.44919816447887
C          -7.63548674825620    1.46883552769605   -2.59900633473913
C          -8.11567369361013    2.78016031541672   -2.79993323058294
N          -8.57342097578050    3.81810502844098   -2.97644079820029
C          -8.71436528554781    0.56128063177089   -2.54492343413420
N          -9.65059692851161   -0.10236220889694   -2.49192601059706
C          -5.74412916536248   -0.16597402289734   -2.22407980364867
C          -6.44378528906878   -1.33707183422601   -2.37365462530558
C          -6.07639893450421   -2.66264324100419   -2.09258610054853
C          -5.01623651642707   -3.21431326640424   -1.37840225895300
C          -5.09073185488229   -4.59502595003525   -1.30714582315014
C          -6.21993493756952   -5.13065359460544   -1.98574226016845
S          -7.18956433524613   -3.91606149708035   -2.67690444248342
C          -6.19394414420373   -6.53046030376841   -1.87030389053717
C          -5.04846638969896   -6.89515203257085   -1.12568374214764
C          -4.31936642662238   -5.69074226739241   -0.75310742403864
C          -3.16576793456192   -5.63674104254075   -0.02724675610454
C          -2.45387635213522   -6.80058416222137    0.33617906817835
N          -1.83827542120655   -7.73502987941276    0.58807483354365
C          -2.58611750310272   -4.42580854694845    0.40989004331403
N          -2.11051942143771   -3.46406268700758    0.81293809659905
C          -4.95542787285669   -8.25175125021927   -0.88901706904869
C          -6.02471507829745   -8.96463737640104   -1.43937675749804
S          -7.13022247472486   -7.89614316297995   -2.31031211472147
C          -6.32100634405491  -10.32921986156519   -1.33689853361609
C          -5.75219424410220  -11.21251513502842   -0.44267820635204
C          -6.04543169403045  -12.59123743170744   -0.31420324369377
C          -5.40057705007872  -13.21225298791221    0.71857159062638
C          -4.57042961252266  -12.35135841719343    1.46171446303377
S          -4.61216946669135  -10.74047186848874    0.79748290375474
C          -3.78493269946149  -12.59211849051196    2.57987954305555
C          -3.54125455438752  -13.78665567816995    3.28311308285295
C          -2.69582973107136  -13.63079608289494    4.34469586567649
C          -2.23465982677550  -12.30597760656326    4.53565497382820
S          -2.91973077334029  -11.26353581697140    3.31152063997831
C          -1.35643532716110  -11.89424423190646    5.51540953322044
C          -0.87207114078527  -10.60234147863833    5.74617760162753
C          -1.20113261285332   -9.38042939907738    5.14720176081889
C          -0.46626315772480   -8.32881550179408    5.66255107728301
C           0.45283396742751   -8.72328847009554    6.66432680675048
S           0.37551043904660  -10.40011492054409    6.98077511072304
C           1.17821792230694   -7.59466842778110    7.08265501596925
C           0.72562580138004   -6.47176168363119    6.34637591852341
C          -0.33330177937841   -6.89227564104943    5.45076174759489
C          -1.05394819550685   -6.09043024409996    4.61314937468045
C          -0.77494422100280   -4.70892303747703    4.51736406413904
N          -0.53604728423386   -3.58897794683595    4.46254131087012
C          -2.14134383369332   -6.53919598798324    3.83808759605755
N          -3.05792709621493   -6.86031676226386    3.22728299348601
C           1.41149396886737   -5.30967713021467    6.66307018272570
C           2.38536401636723   -5.51554920840512    7.63286112554759
S           2.41768301979005   -7.19250668835098    8.17930570737452
C           3.25238527372480   -4.58046001941712    8.22846759033650
C           3.60287916789254   -3.33800686997180    7.78326066324348
C           4.15229758658632   -2.35767999922262    8.75745813893967
O           4.53005609264436   -2.58604297753149    9.88275999293088
C           4.08208117921845   -1.05038981197755    8.06761266018712
C           3.65551765563491   -1.24373890170878    6.74098700191389
C           3.49703029934849   -2.67763252956157    6.50082799095196
C           3.52439411430149   -3.26763419061719    5.26365751964061
C           3.58444921021411   -2.54684200721154    4.05200622270713
N           3.65080563795166   -2.00654117004731    3.04217162403559
C           3.61208333877642   -4.65796941952834    5.05701942164223
N           3.71022690506298   -5.78102166599521    4.83839779339390
C           3.47009428293439   -0.15022224102236    5.90917931822829
C           3.72627831175667    1.11733741528930    6.41036703496823
C           4.16579293934576    1.28546149278752    7.71706313772383
C           4.34868141768953    0.20584301714830    8.57134607395181
Br          4.51643228239696    3.03984885895823    8.35493787708596
H          -6.07796007651957    4.05348783017384   -2.83474209240202
H          -3.93572624277888    5.22645968999784   -2.63707386979822
H          -1.91143881832949    1.53907826643635   -1.77517882513700
H          -7.44165585515645   -1.24757220298486   -2.78739464353211
H          -4.23667913951986   -2.61613466729811   -0.94336227220538
H          -4.13602814164495   -8.71111571384080   -0.37134701856899
H          -7.10665025373480  -10.71379369832841   -1.97353227428517
H          -6.72709282639450  -13.08324175031892   -0.98531885265038
H          -5.51319655203455  -14.25268492217441    0.96533061191543
H          -3.98274261195585  -14.72225804902064    2.99043803434375
H          -2.38797612053358  -14.42927955281262    4.99636252197470
H          -0.97988708964684  -12.66800862392253    6.17235584594373
H          -1.94406073928855   -9.27574866984057    4.37899190608383
H           1.19717024622843   -4.34101078408236    6.24990440867659
H           3.64604774932688   -4.84185510256947    9.20602932309212
H           3.11964810842337   -0.26320082856836    4.89620230766493
H           3.58280432245363    1.98186364674700    5.78061473894059
H           4.68398321320321    0.33469909086797    9.58872473596970
