99
 SCF done       -187.379469161722          0.000591942613
C         -16.70177718205066    4.16602020464781    2.88612814041255
O         -16.22493625309192    3.11056912200081    3.28258987216995
C         -15.98626526277459    5.45531825225559    2.77789699178350
C         -16.91130797791309    6.47048338361534    2.48369505843853
C         -16.46915030959484    7.77441773847088    2.33051333477999
C         -15.11004545767958    8.03781752879540    2.44828115097344
C         -14.21998591263603    7.01221807099712    2.71876668928854
C         -14.63671256345030    5.70172689156524    2.90250084104860
Br        -12.36677558330446    7.40532826839642    2.81497079159046
C         -18.24003040126994    5.86110056157285    2.35470001728004
C         -19.39375594780727    6.55645257115154    2.08489778727490
C         -19.45686661002696    7.95943052329442    1.96487617205696
N         -19.57724924734530    9.09727391182142    1.86304782416412
C         -20.67305668247683    5.99596776795268    1.89433941091766
N         -21.74781524986011    5.63249265294123    1.71220604902315
C         -18.08165528719371    4.43515316198557    2.51123870407093
C         -19.10064363775256    3.49252826296834    2.41774982012347
C         -19.05107503399438    2.11532960437231    2.25185521929837
C         -18.03991308050810    1.26071859035782    1.82323258303094
C         -18.24365170224256   -0.12806695870735    1.61326624100418
C         -17.17038514057809   -0.78652551489056    1.08935276539468
C         -16.06869256159059    0.06042350543264    0.85331530506946
S         -16.43937848593307    1.69887126221047    1.33010020577556
C         -14.80115433505348   -0.26933160334235    0.39633584928944
C         -14.32922396940249   -1.51710214252560   -0.05979164604825
C         -13.01022445406810   -1.50758530429524   -0.40809807385619
C         -12.37235607968365   -0.25692084283047   -0.23238771286703
S         -13.52394543520177    0.92034027393834    0.36076843796521
C         -11.03608441912659   -0.00578834683602   -0.45806572543222
C         -10.33856053601730    1.18326730230762   -0.23733236426947
S         -11.09673580419432    2.63632978788792    0.36003819638792
C          -9.59474188659984    3.53484092609852    0.31573018856585
C          -8.54441150104472    2.69323889717124   -0.08428176231579
C          -8.96376728881123    1.40476048337010   -0.41356862798710
C          -7.97756978736928    0.42808778610722   -0.97218810195478
C          -7.35245779587679    1.02538688395082   -2.22231565287402
S          -6.47919470730145    2.57921384296464   -1.78523173881280
O          -6.89493590119162    3.60417969373236   -2.70598080807976
O          -5.07224083765723    2.29219497733623   -1.71442318636841
C          -7.09727477461540    2.98656924358998   -0.11134405495328
C          -9.65987739321321    4.89023820112366    0.67251230872765
C          -8.74850335811790    5.88090986937227    0.40019434298140
C          -8.91086691356636    7.18457762433168    0.87012359056893
C          -8.01428910702397    8.20532658436270    0.62941030137653
C          -8.01668652778857    9.49703002587486    1.20248429402560
C          -6.91986293035616   10.24780119333475    0.88878002518201
C          -6.01480996944467    9.58903518808231    0.03085364288088
S          -6.61047084248991    8.00631044195439   -0.39672955877807
C          -4.75218428218539    9.98484570062907   -0.38417976128758
C          -3.93587242225493   11.03301511558875    0.08438729168587
C          -2.64482626661153   10.94655992920173   -0.34947332240554
C          -2.37577273124706    9.82909257420369   -1.17999113584228
S          -3.85637410254593    8.96459858932093   -1.48388870480206
C          -1.13342571311160    9.50441480649286   -1.69591450394190
C          -0.73124899273264    8.42833781776931   -2.48697769540447
C          -1.31552262212473    7.22203766637501   -2.82284669284749
C          -0.84622622867275    6.55771814993553   -4.07026599950574
O           0.13716779120336    6.83713275256910   -4.71745569897532
C          -1.86621003554772    5.52600656648663   -4.36806300389326
C          -2.80485482535723    5.49405513485137   -3.32101595461629
C          -2.37740041876219    6.42929107716266   -2.28175164782336
C          -2.80324111953708    6.39411593937877   -0.97070928798613
C          -3.88288704966674    5.62632299047679   -0.50098837549375
N          -4.78617242408105    5.07705946529977   -0.04921621021367
C          -2.14884754490015    7.10945322239225    0.05117862879741
N          -1.61948872776269    7.67422892797555    0.89933886516538
C          -3.90792859496633    4.66460411132541   -3.40247515322948
C          -4.04574121960846    3.85154682464489   -4.51820797808993
C          -3.08998539584189    3.86803417491203   -5.52122849631681
C          -1.98485748494805    4.70968030046214   -5.47283393070194
Br         -3.30501430108303    2.71549706937502   -7.01408289044007
H         -17.14467862973569    8.58507693817172    2.11365474710936
H         -14.74730165686895    9.04640585149650    2.31984296812600
H         -13.94513347588694    4.90180824150083    3.11784359787902
H         -20.10706478665913    3.88933278504842    2.47075716206623
H         -20.00194578708002    1.61161005517315    2.38848641630483
H         -19.17778581312597   -0.59883588105000    1.86470482897327
H         -17.14151357249916   -1.84310585675751    0.89307707867968
H         -14.96673505642182   -2.38027786514312   -0.12076622886925
H         -12.47341447160483   -2.36509110124950   -0.77400124712942
H         -10.46121439997995   -0.84415539035490   -0.82927036490732
H          -8.45113413158661   -0.52430923461582   -1.21197810422141
H          -7.18849664954785    0.23207488054019   -0.23982990659149
H          -8.10047674566090    1.28951066267166   -2.96445768230474
H          -6.59675638447557    0.37656867431077   -2.65502749254591
H          -6.81603906780143    4.01204803802222    0.09394818592346
H          -6.53645670401804    2.32438135506024    0.54639718443002
H         -10.56918478370811    5.18936766339342    1.18036556919765
H          -7.88097309493042    5.67596733051173   -0.21084587490456
H          -9.75880882345049    7.40717070440924    1.50443395061719
H          -8.81146062846231    9.81650230048963    1.85292501282707
H          -6.73789781465949   11.24329989919161    1.25161278746107
H          -4.30103078399557   11.78318523368196    0.76219134792420
H          -1.86284909957438   11.62651145507637   -0.06233804306383
H          -0.36805980525310   10.24709468325953   -1.50415048852237
H           0.20588442141043    8.58739300894856   -3.01567867072117
H          -4.66814313268911    4.63524145843644   -2.64186650503433
H          -4.90858988897828    3.20830675087454   -4.58823782321629
H          -1.25005239513432    4.73176810172328   -6.26286388628006
