96
 SCF done       -204.432655171907          0.000852282738
C          -4.63399102418223   -2.07444777665506    4.49253408917684
O          -4.95386562470960   -3.24961055927537    4.46033509585697
C          -4.59870429552046   -1.21078656416722    5.68779126545206
C          -4.19488456597490    0.08374321651584    5.31480639316275
C          -4.08386451624581    1.06852884919578    6.28610202906350
C          -4.37668046967278    0.74544480992121    7.60265155404210
C          -4.77574534493917   -0.53983025302657    7.94644508325060
C          -4.89421429349066   -1.54297221691877    6.99348047588164
Br         -5.16552806599352   -0.93384359923721    9.76249350112494
C          -3.96219047792790    0.10788835911388    3.87139938397524
C          -3.61413218468157    1.21682314600850    3.14706626383570
C          -3.40942043090841    2.49554869495914    3.70952720396865
N          -3.22927318355721    3.55824529901085    4.10339154248752
C          -3.42650070420034    1.26263950679805    1.74871529577003
N          -3.26242198668063    1.38498776988667    0.61887076778713
C          -4.20094802165424   -1.23503104131478    3.37211509950370
C          -4.00937699827017   -1.66467996567569    2.08332456931816
C          -4.21366538504774   -2.92659030225268    1.50628508432246
C          -3.91723748020056   -3.17505414294741    0.15943766746277
C          -4.20306769158064   -4.47264282819836   -0.21507586389252
C          -4.73670154499505   -5.23369263429028    0.85428827980948
S          -4.86294250326844   -4.35827203734979    2.30852751245530
C          -5.00165356835341   -6.53691956662535    0.37005788292096
C          -4.64240629205930   -6.60562172075377   -0.98879817040141
C          -4.12316503563661   -5.31133515192352   -1.40080487844568
C          -3.65303297838170   -4.96854325714724   -2.63367883721615
C          -3.62808158911266   -5.88833297211771   -3.70365607976597
N          -3.60999110257446   -6.63989726478032   -4.56925697445259
C          -3.15439739379257   -3.67931947706922   -2.91926456983951
N          -2.74387681610047   -2.63584142683589   -3.15622881014757
C          -4.87274640369898   -7.85950290859171   -1.55023049145685
C          -5.40514332599464   -8.74626461874822   -0.62991267510993
S          -5.62399254898477   -8.01812038302686    0.95342568042253
C          -5.75695483950866  -10.10186503998517   -0.84822877839760
C          -6.28352276388103  -10.99583212186723    0.06722336094045
C          -6.49647562122911  -12.25269497746018   -0.49632804020499
C          -6.12973580691992  -12.31374014484044   -1.85260209386502
S          -5.52546434591226  -10.82696348812426   -2.43337936204334
C          -6.37054301841711  -13.62731230088806   -2.32757108050669
C          -6.88823728213651  -14.39803599196719   -1.27147159695290
C          -6.98919329681983  -13.55893559147052   -0.08731460801348
C          -7.44740065232848  -13.92107033612586    1.14450296298380
C          -7.89945407638437  -15.22955132080572    1.41890538406399
N          -8.26399700467260  -16.29391511512012    1.63910299290598
C          -7.49770111765970  -13.01047989435988    2.22155033664652
N          -7.53628381033546  -12.26892062043696    3.09484874314879
C          -7.14522383808989  -15.71776493947800   -1.63824793582952
C          -6.82847062316960  -15.95650349750978   -2.96386342618526
S          -6.20638847215133  -14.52372578625303   -3.77096139064115
C          -6.94004218274734  -17.17979555034258   -3.67097473562725
C          -6.63798984913728  -17.41416399127265   -5.00174124704569
C          -6.84601639504188  -18.74559734113078   -5.35446303703125
C          -7.31057022573501  -19.53117443832926   -4.28378865014980
S          -7.49614108425168  -18.62705822155623   -2.84605566695406
C          -7.47962171462267  -20.86258047110755   -4.73580872807764
C          -7.11656219503700  -20.91686044130731   -6.09825196324040
C          -6.72294062244715  -19.58884538966067   -6.53369459236619
C          -6.35354886588950  -19.21678171907368   -7.79255159791274
C          -6.30717073341170  -20.15192890574360   -8.84849557268072
N          -6.27178315183005  -20.92768879451907   -9.69216743845904
C          -5.99953181926891  -17.88837229381265   -8.10913087785365
N          -5.71136193035522  -16.80614167869754   -8.35377716933127
C          -7.25989267679483  -22.18313421804039   -6.64632011254636
C          -7.73498175728631  -23.10515444666578   -5.72315059717930
S          -7.97457076889750  -22.37526616115379   -4.13786718452526
C          -7.97423766171239  -24.48478182799054   -5.89077955094903
C          -8.12146459838161  -25.19349747539891   -7.04582269251703
C          -7.91921337026413  -26.66908880770468   -7.00502685048234
O          -7.85273069834416  -27.36351585052698   -6.01920773333348
C          -7.76250742133206  -27.07339275361690   -8.41917926352564
C          -7.99050180186737  -25.96263185106782   -9.25237026419410
C          -8.36548212061104  -24.81848316338034   -8.42304473694300
C          -9.05982881705715  -23.72538617218598   -8.87083486411620
C          -9.38370621921915  -23.50076780201056  -10.22617599981839
N          -9.67719484174781  -23.27385637840080  -11.31158729654836
C          -9.61711874091485  -22.74614054335775   -8.02538491387407
N         -10.10797495958175  -21.93960023992636   -7.37199819678327
C          -7.85556554936893  -26.09212129025099  -10.62648297213104
C          -7.50829484473257  -27.32947812258547  -11.14694558233602
C          -7.30579765759565  -28.41882794106173  -10.30863541538128
C          -7.42574252189051  -28.31025825681215   -8.92916588441894
Br         -6.84410679862393  -30.09608794943545  -11.06934205799910
H          -3.77481905114495    2.07205116518182    6.04517498674863
H          -4.29340873446112    1.50012266457440    8.36952530947487
H          -5.20285271183784   -2.54357248239287    7.25356998836163
H          -3.63153059368507   -0.93612707312647    1.37613801571811
H          -3.51271109908973   -2.41596259724142   -0.48667130929941
H          -4.67006643736097   -8.13033303443649   -2.57091558013672
H          -6.49250866354251  -10.72896383547510    1.08766575432836
H          -7.54010671806583  -16.47761095901308   -0.98792894804570
H          -6.28458959718456  -16.64455097883694   -5.66445884977025
H          -6.98913230208452  -22.44755554284885   -7.65207078141907
H          -7.97203165324266  -25.08579816140451   -4.98633969675805
H          -7.99920916955613  -25.25501213470034  -11.29009038108231
H          -7.39341549899514  -27.44947329775879  -12.21321876550280
H          -7.26330275586918  -29.15286906033062   -8.27519613477129
