102
 SCF done       -201.011794290521          0.000602945264
C          -6.54640325842718   -2.16266361371093    2.71445261159992
O          -5.93468176046948   -3.09745763298594    3.21178174468170
C          -7.72565060189539   -1.50188372733257    3.30416325898680
C          -8.13310063562923   -0.45025957373015    2.46573467421098
C          -9.24048561142894    0.30644058302025    2.81650725513390
C          -9.92249199159437   -0.00774596903294    3.98474082996999
C          -9.50264601140707   -1.05708849757714    4.78891918112662
C          -8.39051230145924   -1.82324018536678    4.46807754517230
Br        -10.48561918873503   -1.46949713156988    6.36449849227192
C          -7.23123855592396   -0.39855133283279    1.31172704115132
C          -7.31387345590205    0.51656770540406    0.29155581378821
C          -8.28304517645808    1.53865724813119    0.22678764755703
N          -9.04625122591966    2.38916811046929    0.11539820486602
C          -6.45645907677361    0.57945143953895   -0.82578144647962
N          -5.80048943933550    0.69491312856605   -1.76185207006075
C          -6.27612218801223   -1.47384433072736    1.45901872530135
C          -5.28193782676487   -1.81058366289291    0.55688178530674
C          -4.37805775206004   -2.86464178768509    0.59329555002161
S          -4.25382860733058   -4.08529864863296    1.83981322849637
C          -2.98595396219514   -4.95327759553465    1.00174961273548
C          -2.65918187677250   -4.29272021558314   -0.17582626883861
C          -3.42665299589451   -3.13039969787787   -0.41770173690469
C          -3.06293189394301   -2.49532308811317   -1.62328960094087
C          -2.05088348948179   -3.15668738674010   -2.26192408888552
C          -1.41753567166443   -2.77095562148392   -3.52557042591423
O          -1.72188623511347   -1.80719465353227   -4.18042801991094
O          -0.44621863969146   -3.63509242192601   -3.85763403233676
C           0.24553322777656   -3.35827900419769   -5.06562762360286
S          -1.50053573065800   -4.58596180100352   -1.42890034236964
C          -2.45303072395348   -6.12617944754113    1.58601362586838
C          -2.97555845882767   -6.59422974018975    2.77565497760580
C          -2.51279420432147   -7.68525994976498    3.48859665063924
C          -1.46831394150166   -8.55464966338938    2.92741703611164
C          -0.82554476159858   -8.30069097726950    1.76559120530610
S          -1.11675699153657   -6.92882126211367    0.77143279890640
C          -1.34375080383153   -9.62804830791735    3.85001785454931
C          -2.22633630383955   -9.43663999411587    4.91882683473979
C          -2.13525944205531  -10.47278360748980    5.87528323022697
C          -1.21291009660287  -11.40239693005154    5.51656356662095
S          -0.41489927164556  -11.06294164736886    4.01566389621167
C          -2.94866791305400   -8.21102980021335    4.72611005293197
C          -3.87188562106295   -7.68020022107779    5.66116530682561
C          -4.33254417200468   -6.40344243660520    5.71205056144277
C          -5.26008733758443   -5.90860378600248    6.66181629182365
C          -5.73053664028952   -4.62202536566719    6.73489316326546
C          -6.61852416926389   -4.39304229009989    7.80512105614898
C          -6.84880727786033   -5.55836655998627    8.58585342339326
S          -5.93802107852931   -6.90766579723021    7.92882030743827
C          -7.66314373456062   -5.52762972699096    9.70540352028182
O          -7.97641718382700   -6.52679950384262   10.55936574659970
C          -7.42654684700832   -7.81249786459269   10.39153219735824
C          -8.26084140113044   -4.28214531537307   10.01531928927925
C          -8.03783054128096   -3.11971360290253    9.22884558897200
C          -7.20618003588191   -3.14729593592962    8.12476459848267
O          -6.87951151699164   -2.12226490658931    7.29530602382592
C          -7.00103048190732   -0.79484564410266    7.75494567601353
S          -8.94401388340526   -1.77201325960864    9.87536559234540
C          -9.54465312550486   -2.74141614967000   11.20790801219954
C          -9.11555184812851   -4.04218136599324   11.10456717351716
C         -10.43665426706874   -2.24916822461265   12.18791500435007
C         -10.75456310496876   -0.96179915560441   12.49787310038168
C         -12.02896100229625   -0.66695533893017   13.20223400926507
O         -12.73916258698656   -1.44781570270125   13.79045232850553
C         -12.26228612647377    0.77855982907486   12.97201525852035
C         -11.15531670932565    1.33437413263182   12.30344632984197
C         -10.13778607271232    0.29828789767309   12.14679905565427
C          -8.79580537408046    0.52178610159726   11.98198221954748
C          -8.24115211252741    1.77969155442479   11.67640265647885
N          -7.74337663171151    2.77627927076124   11.39837026798190
C          -7.81387609877439   -0.46663704012352   12.20884471032135
N          -6.97870301561135   -1.21297157665233   12.46097653963286
C         -11.16233011249873    2.67618682993579   11.95484424461620
C         -12.26976571948658    3.44354046128269   12.28331313196908
C         -13.34538332417811    2.87951598700609   12.95680157843564
C         -13.36283749113583    1.53725139284804   13.31239741548596
Br        -14.83324310079791    3.97489111418671   13.39952360022587
H          -9.58838763360533    1.12366950609821    2.20681299578425
H         -10.79090484748529    0.56756794399059    4.26695427699109
H          -8.05033516865608   -2.63228824215670    5.09492959496061
H          -5.18860499944674   -1.18948191021864   -0.32398242422800
H          -3.50372735573686   -1.59742184949205   -2.01766085253492
H           0.99065327179544   -4.14181241778581   -5.17433100832305
H           0.72217204380633   -2.37737766973204   -5.01211244898462
H          -0.44794480478914   -3.36565274615925   -5.90895492205461
H          -3.83282750053683   -6.05745942823116    3.15166032834372
H          -0.05502562839221   -8.94852290504694    1.37800239262670
H          -2.71799964354084  -10.53150535272236    6.77647027087098
H          -0.93641098448683  -12.29231882415504    6.04745109721071
H          -4.20304696975291   -8.36685747172070    6.43221875612876
H          -3.96974350584724   -5.65268438070359    5.02727077823360
H          -5.45319006833312   -3.85541514337392    6.03401711193519
H          -6.33630168595114   -7.79740870167439   10.46553430165748
H          -7.72241312535677   -8.25729133487426    9.43796168551104
H          -7.83438169059039   -8.40681164405274   11.20798935822437
H          -8.04485839832243   -0.47817556566328    7.82692782136173
H          -6.49152224669838   -0.18354876842135    7.01070128259053
H          -6.51689471552998   -0.66316245184466    8.72602273539278
H          -9.37985881996216   -4.80681289402092   11.81187322639125
H         -11.01436503337945   -3.00637926826532   12.70897908281791
H         -10.33590252127265    3.12643752361074   11.42899742265302
H         -12.29712630386673    4.48901532088203   12.01659969194433
H         -14.19808707105995    1.09713156745484   13.83479318829320
