103
 SCF done       -184.471144065471          0.000800429946
C          -1.64638796922764   -1.42019542045331    1.54434269253316
O          -1.37395102142317   -2.59822933794275    1.67800975021735
C          -0.71245960155196   -0.28607435628541    1.71497889683956
C          -1.38004364919577    0.91672974377891    1.42621214661396
C          -0.69662066051887    2.11911998046127    1.53245985624742
C           0.63489363915296    2.09883820207331    1.92133689050125
C           1.27409662254554    0.89765015042120    2.19647047794126
C           0.61160150897352   -0.31880807165142    2.09800047189788
Br          3.09942035786161    0.92016960351695    2.72378450151259
C          -2.75856882863454    0.60730940118149    1.04809499473190
C          -3.67467041336399    1.51928400635740    0.58847578393929
C          -3.41765380034941    2.90053374831430    0.46288808434927
N          -3.27010189572122    4.03252254993389    0.34225646959236
C          -4.97843898181007    1.21584221520775    0.14383944813718
N          -6.04534309719862    1.04014460315731   -0.24499406741694
C          -2.93806168115141   -0.82340923255525    1.19260853138595
C          -4.14275240247069   -1.48101614122756    1.10933242234721
C          -4.44818307435023   -2.84311814451648    1.20385099699509
S          -3.28192726132450   -4.13956906404845    1.26382093245859
C          -4.53657125298237   -5.32966894461728    1.19569667769978
C          -5.80581108114529   -4.74995240943496    1.11288586065688
C          -5.75970285204806   -3.35774230603271    1.16050126867953
C          -6.98821998719010   -2.48055247757772    1.28234338663010
N          -7.03527013524157   -1.76088332547436    2.54794731985462
C          -8.27358430298303   -3.31231540600672    1.18290979662170
C          -8.10470247107658   -4.49908045304971    0.24971812792544
C          -7.08772764176021   -5.49150321651301    0.83863987756571
N          -6.82851839265200   -6.63206587431035   -0.02656856121862
C          -4.12676201637481   -6.68899266459585    1.30593516335098
C          -4.88604675486830   -7.70889040878921    1.76179699731754
C          -4.43453346513128   -9.05763929588199    1.93558229717739
C          -3.27953937390713   -9.61103201737227    1.40752753858166
C          -2.88382283812317  -10.93634932961440    1.62710598013400
C          -3.60516553467796  -11.82272577545288    2.40598800133637
C          -4.79289477625605  -11.30017475213223    2.98071213809413
C          -5.21298356622919   -9.94518609120562    2.72895379836352
N          -6.34856455137324   -9.76484225611551    3.37303903832148
O          -6.62188177079910  -10.91807748669013    3.97933414277888
N          -5.70214882986715  -11.85451407477832    3.75809734368376
C          -3.18405350886791  -13.16514774614720    2.69797136460601
S          -3.56966473592245  -13.83161032851878    4.24550090224249
C          -2.64176312114574  -15.27343615201644    3.91519965375377
C          -2.08430900456190  -15.21913060824119    2.63986818251942
C          -2.42841097300772  -14.04910155899454    1.94260726381789
C          -2.14600100330478  -13.91497834129447    0.47064363286748
N          -3.14952129772048  -13.08085944630526   -0.17270858798035
C          -2.06797785913458  -15.33647782825115   -0.11255934777774
C          -0.95305274322294  -16.11380468119361    0.56524811878191
C          -1.20441408688859  -16.29456128054809    2.07178128145601
N           0.10053483958762  -16.23343968166600    2.73233973253953
C          -2.71185293005422  -16.29194647142409    4.89520002453283
C          -2.01471543890636  -17.45621121393918    5.00061235205799
C          -2.25428531086723  -18.41387184960818    6.01635027946799
C          -3.39967704210349  -18.65735198998438    6.71735759760799
C          -3.31595265397924  -19.40025670974871    8.00128775223976
O          -2.36426187488382  -20.01114361839950    8.42896714325960
C          -4.62620016920620  -19.18617936915390    8.65688201547876
C          -5.47832649712023  -18.48925914907561    7.78099841271372
C          -4.78193268576412  -18.28035328372788    6.51168155143250
C          -5.40263447074284  -18.03075460837421    5.31457301810731
C          -6.78731988111915  -17.79971702053740    5.18192279865286
N          -7.90592003566974  -17.60116819634250    5.01821357495571
C          -4.75640580230143  -18.06220908847656    4.06311193269816
N          -4.29734087576772  -18.11348647115655    3.01170350661796
C          -6.75428369313426  -18.13893162448147    8.19626780068550
C          -7.16249171937536  -18.50007698822724    9.47138404169697
C          -6.31165817477586  -19.20412452163369   10.31371046108067
C          -5.02645698372911  -19.55696906563021    9.92378743304013
Br         -6.91979400643443  -19.68538122481816   12.04786495745237
H          -1.17255234595089    3.06349696456332    1.32662185039996
H           1.17998272851923    3.02580724269713    2.01172323094946
H           1.10237509034138   -1.25547930732063    2.31211221605320
H          -5.00730449562536   -0.85220978925405    0.93895930672632
H          -6.98053486581394   -1.73052079650111    0.48181155602674
H          -6.93447889071617   -2.40376034877943    3.32578370601265
H          -6.31329013303653   -1.05581219229143    2.62177023845040
H          -9.08444427313408   -2.66660032364975    0.84889191612729
H          -8.53077353699608   -3.67419970325912    2.18077868388700
H          -7.75039325575864   -4.15748845321839   -0.72706026753518
H          -9.06215398035924   -5.00478107964284    0.10766128052779
H          -7.49224820829305   -5.88754571310726    1.78101828270694
H          -6.45413647185371   -6.32022200252701   -0.91626708155446
H          -7.69012108790162   -7.13425420854580   -0.20718027002235
H          -3.07943771464897   -6.85657097665344    1.08887152174065
H          -5.89895575042382   -7.52822422031172    2.08090105466384
H          -2.64498514314987   -8.99798744388192    0.78674554444567
H          -1.96101353308578  -11.27184810149597    1.18600988054549
H          -1.17351143880650  -13.42465053229570    0.32314978016006
H          -4.07040180431918  -13.49091972463125   -0.05597081720932
H          -2.96125933526089  -13.01953193713319   -1.16706817415188
H          -1.88066653963987  -15.27762840470750   -1.18740347137050
H          -3.02486814394361  -15.84229758906241    0.04269402392373
H          -0.01343790900700  -15.56969885222538    0.45012588741715
H          -0.83790776218106  -17.09202295842021    0.09721203242384
H          -1.73034090501564  -17.25281844431601    2.23754864384689
H           0.62904499071197  -17.08042938762590    2.55768035665834
H           0.01534026340397  -16.09803908424684    3.73205490631393
H          -3.42858299146339  -16.08131712732651    5.68180386030584
H          -1.17880404756074  -17.66793101508175    4.35404802274751
H          -1.40310732852762  -19.01253454477829    6.32735637399448
H          -7.42515815264190  -17.58641320344405    7.55869642554809
H          -8.15022350748615  -18.23271658151317    9.81413866729454
H          -4.36094197639375  -20.09892591283571   10.57760650604328
