109
 SCF done       -182.578311874322          0.000435275683
C          -0.58691436264336   -3.31782690645147    8.37027594506641
C          -0.72102914819762   -2.10276901788894    7.45956354481579
C           0.58093053257914   -1.79205311199890    6.70847292393452
C           0.46664337519382   -0.48915642892552    5.88097240555588
C          -0.53472259135160   -0.51332486635653    4.73369384539035
C           1.75868673557735   -1.61207715768092    7.64295409088480
C           1.90403774901983   -0.73067553913864    8.69255228171326
C           3.10320458324617   -0.71453363819905    9.39280546227392
C           4.14362673386030   -1.56067282640914    9.04040385801274
C           4.00803318091777   -2.44706916960827    7.98495155656243
C           2.81002309230707   -2.47061905299416    7.28880292354471
C           2.37142539189039   -3.29821802697964    6.18185219617220
C           3.01976690493480   -4.31281217002011    5.49439914835210
C           2.33777374792048   -4.98215692066805    4.49874176336071
C           1.00206620857542   -4.68554671914837    4.19489177627695
C           0.34227946405863   -5.44623628107684    3.16084967984762
C          -0.98161102101454   -5.45715367959003    2.90221567832360
C          -1.60280643938877   -6.19679747148452    1.85580487227168
C          -1.03317855613722   -6.93508071856991    0.83105364304375
C          -1.98405586460554   -7.49211073457186   -0.01483666460330
C          -3.29505103861021   -7.18870891651202    0.36309109059987
S          -3.35437057380890   -6.20289028475499    1.76491926127448
C          -4.19227521770438   -7.78188668044763   -0.55011292525101
S          -5.86856638545391   -7.94007082194151   -0.86281291748015
C          -5.42929817657171   -8.90174600276882   -2.29414396797616
C          -6.42858195482075   -9.42476255899998   -3.15625508808266
C          -6.12664590213669  -10.11132070759232   -4.32526621316554
C          -7.10795155898539  -10.61697030904105   -5.17592999228752
C          -8.47550310880647  -10.50145176922144   -4.94674922298058
C          -9.42482194902553  -11.04715458047404   -5.86214532661256
C         -10.76554435461935  -11.01331012807265   -5.67729116301265
C         -11.75497851017823  -11.57615690247048   -6.52812490301239
S         -13.32700625295118  -11.78946251807184   -5.81778960765107
C         -13.92502854900826  -12.60344078620511   -7.23533408457876
C         -15.23640122425434  -13.12290005766179   -7.30701874823854
C         -16.34220701797439  -12.68439952827604   -6.64085319061080
C         -17.50579991420608  -13.58022831250499   -6.43642019720763
O         -17.72181866368964  -14.64219095656275   -6.97238135284498
C         -18.31810700282803  -12.91402860546015   -5.38854330296742
C         -19.44382114113818  -13.38257901072352   -4.74385088338432
C         -20.00691237302522  -12.56596796244600   -3.77208978343670
Br        -21.55955204767218  -13.15881000919811   -2.85014213557500
C         -19.46461975334005  -11.32869273861462   -3.45158266442513
C         -18.33801059813156  -10.86099462748463   -4.11157850045903
C         -17.76179065775239  -11.65667660759376   -5.08952553193360
C         -16.61578836733984  -11.43406738315168   -5.96767448242001
C         -16.10224298202417  -10.20788803012518   -6.30487395963802
C         -15.20878538940141  -10.01362843574550   -7.37797720282253
N         -14.52982588084537   -9.81077117675311   -8.28202519441017
C         -16.49493905296566   -9.00007167305106   -5.69543707653302
N         -16.78218110402780   -7.99369292840963   -5.22382935817478
C         -12.93039557892665  -12.69077237327647   -8.20378130348871
C         -11.73283481333837  -12.06171669058131   -7.83446197654934
C         -10.60672490535440  -11.84954279784111   -8.81284853059423
N         -10.04134139859703  -10.52061594377842   -8.63496906451026
C         -11.11878321623389  -12.09214037047893  -10.24263970845746
C         -11.84982288168633  -13.42157712953655  -10.32703292043601
C         -13.16600855877322  -13.34597381253033   -9.53935023847235
N         -13.80469639373378  -14.64135530287244   -9.35224534908048
C          -8.82631469550072   -9.80972170859287   -3.75150111642032
N          -9.99090811818324   -9.51494806278507   -3.20894601472197
O          -9.72966308989604   -8.84923535312396   -2.08374011504978
N          -8.42541780012510   -8.69444490800234   -1.86563657570258
C          -7.81166190704632   -9.27472123310568   -2.87471858854559
N          -4.14261614845807   -9.06341831779250   -2.47328578643056
C          -3.44281761997379   -8.46065620296269   -1.52496925141350
C          -1.97633304940880   -8.33546349065707   -1.25615191223025
C           0.36101782915758   -3.65194741909659    4.89586879764036
C           1.04808715156068   -2.95114430436737    5.85687930922169
H          -1.52875569500447   -3.51288023539953    8.87824610667587
H           0.18247254264119   -3.15223080320787    9.12115845153415
H          -0.31700878717612   -4.19981871425601    7.79329586778766
H          -1.00197735814348   -1.23098415008323    8.05438926537186
H          -1.51765450075021   -2.28626133927827    6.73727570605299
H           1.45670704261463   -0.26372602223446    5.47534837081793
H           0.20222974832104    0.31716321298977    6.56903923166268
H          -0.24383172799958   -1.23997975050733    3.97992566107773
H          -0.56472832835652    0.46713680056329    4.26276978526412
H          -1.53627111738579   -0.74752103152779    5.08474422060682
H           1.10175512541392   -0.06521243733862    8.97672238219488
H           3.22739432905475   -0.03335925076405   10.22195673935963
H           5.06870890579639   -1.52813274764858    9.59735318060195
H           4.81858393544545   -3.10658071402032    7.71247087083287
H           4.03917462811955   -4.57702472892942    5.73355137410870
H           2.83293015427601   -5.77242088809890    3.95198896724335
H           0.99305546059086   -6.07059814782014    2.56287552574328
H          -1.66014081946373   -4.88519366278921    3.51962744349818
H           0.02846854970294   -7.04517480300364    0.70803470860799
H          -5.08515428790100  -10.24516796041510   -4.57176197880181
H          -6.78784279574625  -11.13057556273311   -6.07082464770206
H          -9.00881156500625  -11.50771792659906   -6.74242912401212
H         -11.14238359024823  -10.57094666826557   -4.76415624835715
H         -15.34971538111099  -14.01052932791538   -7.92245336782617
H         -19.86324958657216  -14.34522811542850   -4.99202188939760
H         -19.92501348098375  -10.72766798339314   -2.68243098069624
H         -17.92343776278721   -9.90126181093967   -3.84842095675409
H          -9.80426681737617  -12.57490496602944   -8.60544505663543
H         -10.77236589024270   -9.82066637936297   -8.70097451994111
H          -9.35955238045695  -10.33204058023139   -9.36154606549737
H         -10.27227754796254  -12.07559036109244  -10.93342874236325
H         -11.80151568722138  -11.28370082770802  -10.51765203857459
H         -11.22071452540589  -14.21171120161356   -9.90516475926964
H         -12.06326401271430  -13.67829517459962  -11.36696988465641
H         -13.87745708516449  -12.71989901773947  -10.09586877205964
H         -13.18241061936372  -15.27492838185374   -8.86136382112978
H         -14.03284504778654  -15.05479701698818  -10.24868587963736
H          -1.45253484836833   -7.85088633195730   -2.08205338834799
H          -1.51156284908357   -9.30961132460363   -1.09330335892163
H          -0.66633414797670   -3.41247679516110    4.67296966310876
