93
 SCF done       -171.383532768802          0.000699212699
C           4.34064378786409   -4.17997655925998   -2.97727853302540
N           5.00522487711942   -3.21017040284567   -2.14872371458611
C           6.04981327774711   -2.39346451538811   -2.59558548445586
O           6.46187296544522   -2.38264260610039   -3.72565688386306
C           6.46515320209421   -1.53399965060418   -1.43987487122009
C           7.53795136059744   -0.57714465451791   -1.54748166144760
C           7.56489553422749    0.76668175734321   -1.40527572779487
C           8.91760142761973    1.25131580872494   -1.66122432650543
C           8.92612645784377    2.60279723812807   -1.57778816812372
C          10.01209900658364    3.54498285765041   -1.71255752362060
S          10.03498066038774    4.70146784575759   -2.99822435022126
C          11.58565926459778    5.30823697806603   -2.48347919271602
C          12.21553482682655    6.37473784358108   -3.20739756372924
C          12.22223199271863    6.67228723984019   -4.53704856017789
C          12.97007872870185    7.90519539567632   -4.74333491335237
C          12.99827832153279    8.20877032361091   -6.06019880069551
C          13.60349033803750    9.30506100742740   -6.77376530933314
C          14.89240197491973    9.70001529144380   -6.87261630601488
C          14.97246677993938   10.87286905516692   -7.74706454302521
C          16.25927804663787   11.24622842463218   -7.86450889416985
C          17.05610039740998   10.28807053851313   -7.07345660018903
O          18.25050219004627   10.22620351390849   -6.91739609129131
N          16.15452931125304    9.38051930910857   -6.48051393817426
C          16.57620870154430    8.19812771128614   -5.77978802675902
N          13.71324006925009   11.17905041023358   -8.15892300600045
C          13.32640402640164   12.25490723948742   -9.03143387366068
C          12.80981935108496   10.25829835281174   -7.61445512025244
O          11.61955032977611   10.30389307628066   -7.78075657376252
C          12.24572893895812    7.11523624875668   -6.74666819407992
O          12.07666512172523    6.94429009906539   -7.92695023393998
N          11.81148180696461    6.22532898781575   -5.75741806517408
C          11.10619682543274    5.01443404837593   -6.07901584252468
N          13.38502543463433    8.37052647343354   -3.52875323212821
C          13.96420794289764    9.65706604501030   -3.24778137857959
C          12.94397482838494    7.49678940883339   -2.53614710593650
O          13.12747154009848    7.68555553141793   -1.35761570894458
C          12.01917754593021    4.65817925484453   -1.34895507536677
C          11.11975560731815    3.66122444009465   -0.91039161342973
C          11.31715867400357    2.83705746140874    0.32748211854744
C          12.54746294262752    3.29362438597534    1.12826189588590
C          12.22026784632851    4.43549231570381    1.95393512375745
N          11.95372341074780    5.32441884739331    2.61961615712734
C          13.70565550887470    3.65317237112172    0.17069107974613
C          13.94468535210600    2.53115958988890   -0.70571994320980
N          14.08398853571274    1.63918436577378   -1.40730049847309
C          13.33021528051373    4.88500111493090   -0.66549962724114
C           7.51656332812771    3.01339093197353   -1.30762074204960
O           7.06246931547513    4.12512437835673   -1.20811724868207
N           6.76067049828628    1.84302881831454   -1.16957997261671
C           5.32670473523243    1.84246684345831   -1.05419082937016
N           9.71010514206234    0.18185364916688   -1.95218778422679
C          11.05028337110507    0.20285834951329   -2.48089539045023
C           8.92865663654993   -0.98149205173702   -1.92871004267856
O           9.35742207530541   -2.08522210488814   -2.14118263874054
C           5.66703823839241   -1.88212976368005   -0.40642175648444
C           4.75100983067458   -2.94101503466984   -0.84014527034889
C           3.97663589417848   -3.30436116788510    0.19751743261422
C           4.40028877488943   -2.48876896587582    1.35293251634864
O           3.99816157460236   -2.49920146519963    2.48963700834971
N           5.42642526236423   -1.63054330159060    0.90725109445478
C           6.19479799023573   -0.79605168849911    1.78985431913184
H           4.79180837398298   -4.12606311146469   -3.96730262883201
H           3.27448928228030   -3.95754720502238   -3.04842675445116
H           4.47193580093488   -5.18470093644492   -2.57182111166859
H          16.70140161979962   12.05037284375104   -8.41701407232330
H          17.66258485079256    8.24035698114817   -5.70371860846141
H          16.28414662487245    7.30051013636485   -6.32951872198105
H          16.14283965717849    8.15531681374868   -4.77951212634120
H          13.60621105569099   13.21774751806029   -8.60024750195171
H          12.24432213008975   12.20716512931850   -9.14705966312827
H          13.80197208748588   12.14669063622033  -10.00782145669623
H          11.09743217936490    4.93099164973349   -7.16558974093434
H          10.07907568040798    5.05029405410809   -5.71207625056069
H          11.61273164413732    4.15067792685627   -5.64743589760593
H          14.93621051692171    9.76569584390692   -3.73062142016048
H          14.08312109381351    9.72870870206622   -2.16699618439694
H          13.30591463484149   10.45583279707307   -3.59542846248744
H          11.44265590312125    1.78503722332389    0.05643137874096
H          10.42163708143749    2.90427910204916    0.95320639904918
H          12.85999530323519    2.48491638689892    1.80165752242062
H          14.61826152624670    3.85646223568568    0.74249288499209
H          14.10811849475561    5.09027248277058   -1.40499566174414
H          13.26265529446009    5.75878521254216   -0.01199129242619
H           5.00836222743520    2.88227602104126   -0.98470529868412
H           5.00456836878227    1.30370840416081   -0.16195101168269
H           4.87143120747807    1.37860771045574   -1.93165451268279
H          11.10578588439244    0.86082762021659   -3.34940813948296
H          11.29328092870557   -0.81599726678949   -2.77976135919875
H          11.77739422068613    0.53765845113661   -1.74068202942598
H           3.20132773101391   -4.04072870998180    0.26114004144800
H           5.76490800347556   -0.89983442533556    2.78596344675513
H           6.15069952210670    0.25027973075173    1.48301991075186
H           7.23911805109919   -1.11534720481963    1.80800633005914
