101
 SCF done       -188.661514542865          0.000934020437
C          -2.90523969266143   -9.83050698397235    6.96065472068220
O          -2.76559096826334   -8.77751459907932    6.35798034393430
C          -2.97938742119946   -9.95284830483516    8.43004202115831
C          -3.22423649949228  -11.28914941429437    8.78333112950124
C          -3.33831342881665  -11.62829189788097   10.12325623108550
C          -3.20627230372280  -10.63133937108389   11.08148203514902
C          -2.96193723805620   -9.31991324842642   10.70364616517976
C          -2.84438712172588   -8.95489625127424    9.37068007566896
Br         -2.79842710997806   -7.97571488748508   12.02951751543950
C          -3.29523922736807  -12.08128390875574    7.55517384536168
C          -3.43533434172428  -13.44628355671783    7.51511424990298
C          -3.60976175125662  -14.25213553782653    8.65952768594425
N          -3.76418745766760  -14.96390822506361    9.54715694725380
C          -3.40156244482966  -14.25378471214894    6.35865871395075
N          -3.36388976997819  -14.99213346716726    5.47890310511892
C          -3.11413839626517  -11.18173906579739    6.43149126402021
C          -3.27883945482261  -11.57114254540955    5.11612291067667
C          -3.00246083481763  -10.91986665470656    3.90283668763023
C          -2.24862297156397   -9.76877095841921    3.72438557802283
C          -1.92806137476610   -9.21002344046638    2.50258819205954
C          -2.28579498186277   -9.87051449707061    1.23773504360112
C          -3.03970780187733  -10.99026760164417    1.15608211288415
S          -3.66841745894329  -11.80996194508334    2.51874822043968
C          -1.65651835675877   -9.10946584892072    0.21890018934886
C          -0.95354888601503   -8.04402353094923    0.79295542298136
C          -0.30021209876733   -7.25185379736351   -0.17945514432344
C          -0.51477739178391   -7.72592289846297   -1.43247264725006
S          -1.51630169763632   -9.14221341228992   -1.49095321147151
C          -1.13618738844890   -8.06484810358322    2.21307132989488
C          -0.59604094590398   -7.08219503818042    3.07087406291602
C          -0.99839002893945   -6.76934766702841    4.33371515503319
C          -0.35286901124349   -5.80050664327799    5.13430213483186
S           1.15769407525501   -5.07531488376647    4.64773323041406
C           1.26142207387560   -4.17113586734777    6.13175098435210
C           0.14758918739901   -4.39676755928148    6.93308119703967
C          -0.75041064721566   -5.31833361279727    6.37716357391218
C          -2.02406331912979   -5.70948923330490    7.05469291106089
C          -2.00168544872776   -5.32939630978627    8.53287082883870
C          -1.57192306752006   -3.86597053731765    8.67974809706387
C          -1.73109344824284   -3.41073497936085   10.10400168088525
O          -0.85447869555434   -2.96183374089924   10.78986045922792
C          -0.11685898900070   -3.72333126732472    8.24034278771897
C           2.40990597394558   -3.36015704585452    6.37925412218372
C           2.83630514016946   -3.02090366211298    7.64178388765577
C           3.95657939455222   -2.24840541909497    7.92694645306012
C           4.84701021185437   -1.76749472467219    6.87410747163599
C           4.64088636452587   -1.99834569918968    5.55717964171805
S           3.29208257204084   -2.86053176118293    4.94355565427206
C           5.90433513040031   -1.10425435956475    7.55594227072961
C           5.70432480279770   -1.16960984891761    8.93777231993006
C           6.73534768116088   -0.50757068402808    9.64095952821179
C           7.66273104214587    0.02111996542146    8.79941984887932
S           7.33244750301187   -0.25425623553092    7.12552671748700
C           4.47410510282432   -1.88269549653101    9.19152205956672
C           3.84888682473180   -2.19852377759518   10.40921802250727
C           4.35994040505189   -2.00822676339364   11.66541320733488
C           3.69295320006540   -2.27807511391465   12.86981310349753
C           2.55931408430265   -2.99887873442849   13.17803756136497
C           1.88921624485428   -2.66505949912154   14.46053708420659
O           2.31790476703590   -1.95676556794748   15.34441600016322
C           0.58112755842082   -3.35494104523609   14.41517710952689
C           0.52047419144760   -4.15087809099828   13.25902357130070
C           1.77995505320945   -4.01288468007537   12.52360907298931
C           2.17879300018747   -4.86844653207376   11.51909294684852
C           1.33489717410087   -5.80182715604402   10.89596417801953
N           0.68589975473571   -6.53180468953128   10.28668833753783
C           3.48658751547173   -4.92742503324479   11.00499486209420
N           4.54168477371107   -5.03520036843194   10.56310512143016
C          -0.60769601592325   -4.91824891501503   13.01810094509807
C          -1.66430764341304   -4.85775869423406   13.91429489400593
C          -1.58591492804992   -4.05297061588304   15.04076813183205
C          -0.45834794764355   -3.29175594848721   15.31839313010038
Br         -3.05877577346733   -4.00058558445763   16.23890083470913
H          -3.53008568630508  -12.64003925896558   10.44020234766780
H          -3.29549805867003  -10.88094192256147   12.12787899442112
H          -2.65039766867860   -7.93651443424941    9.07692849043599
H          -3.70814842952811  -12.55753237957487    4.97989708540973
H          -1.85667305235846   -9.30888399214997    4.61626953357120
H          -3.29910129759007  -11.44546416922513    0.21302325804741
H           0.29662747226959   -6.38378061556850    0.03353506929510
H          -0.14369776664393   -7.32984119781668   -2.35746297316065
H           0.19832477342562   -6.48280888563570    2.63864255868709
H          -1.86261597905991   -7.24517335997451    4.77029898026723
H          -2.18742835031567   -6.78275533788626    6.94205510184472
H          -2.85864071978175   -5.20450551623683    6.55592921580547
H          -1.27948291111418   -5.95236445011295    9.06627103496786
H          -2.99076395658738   -5.47688040992207    8.97148999007350
H          -2.23007123696561   -3.24255143085586    8.06181057007270
H          -2.75753819178741   -3.53575883929267   10.49980766107539
H           0.49040605486220   -4.19560714439761    9.01810509196074
H           0.16058840660951   -2.66734925914231    8.18963795293530
H           2.29253541440010   -3.43321589671553    8.47318359522323
H           5.31670552188804   -1.65230553024247    4.79119912321069
H           6.80650685448244   -0.41212501079615   10.70836530151034
H           8.54549755533408    0.57106445082703    9.06117242999567
H           2.84118821309822   -2.58455426702857   10.33306941035185
H           5.33156743180522   -1.54785397663209   11.76056966482531
H           4.09173203425068   -1.75824675236991   13.73856863708281
H          -0.69446781252615   -5.55593991631306   12.15492353759815
H          -2.54933959720046   -5.44861130968995   13.73269216229424
H          -0.38753804265458   -2.67604140763972   16.20174025733227
