116
 SCF done       -219.146461814515          0.000489657806
C           5.86447465374510    2.48580488323348    1.07938371257020
O           5.16655549152807    1.56282795970848    1.46407983854692
C           5.76773926894475    3.86844338952530    1.59364354504984
C           6.79385392625545    4.65304398447778    1.04551776366566
C           6.88721464935083    5.99263525763617    1.39095596584779
C           5.95958774798278    6.51906177989152    2.27953877659306
C           4.95829024344185    5.72029497635156    2.81267018551124
C           4.84026657870158    4.37817839936437    2.47674405465935
Br          3.71965892938360    6.47910364507998    4.04153427042602
C           7.59088368603948    3.80621618239467    0.15963695296845
C           8.77925984797489    4.18401782161663   -0.41464058646275
C           9.34639138980883    5.46707107274694   -0.26998833497547
N           9.85839468121577    6.49227271808868   -0.19594541368147
C           9.63640462320471    3.35865518246002   -1.17263807444097
N          10.40583854743485    2.75397901580758   -1.77474167581520
C           6.94751272916915    2.50691419001728    0.08253393152186
C           7.28607330363246    1.58386325752729   -0.88865639911980
C           6.81287784277501    0.29598565830365   -1.18322106197975
C           5.92604908576563   -0.45409703312008   -0.42801617832751
C           5.45682868527422   -1.70415845039928   -0.76643445864097
C           5.86870745358430   -2.38803006798250   -1.99258650063205
C           6.75519879895939   -1.87413705613005   -2.87661089192195
S           7.49992110962352   -0.34320808292341   -2.69150550963647
C           5.15863655448860   -3.61671531389301   -1.98654055545005
C           4.35521648484902   -3.71192994969111   -0.84076713579970
C           3.63778614646969   -4.93208450461936   -0.81693546825776
C           3.90611796848883   -5.69906633516033   -1.90417855496034
S           5.03595548843536   -4.98911065706268   -3.00767498781006
C           4.53190181187968   -2.52159977477087   -0.05422980842341
C           3.97001438499320   -2.16043339204153    1.18125022814490
C           3.08002401566343   -2.91153914394431    1.89729345975707
C           2.55745888013708   -2.61093817023809    3.16381460961976
S           1.45226456293616   -3.77756879655454    3.85230058117499
C           1.27507115317930   -2.91308229690094    5.35459275237180
C           2.04192484485577   -1.76107628967862    5.29004970092924
C           2.76560803488073   -1.56504709386902    4.07778106650330
C           3.54635929378961   -0.38378061872536    4.11677274601099
C           3.42656512101407    0.27337816327273    5.30630686789555
C           4.07999540002521    1.47396728098801    5.82062319177374
O           3.86769889243952    1.90894911812933    6.92879239540487
O           4.94815354856503    2.02063545069723    4.95893761417088
C           5.64618239113535    3.15499846626537    5.45177250573237
S           2.34192960130060   -0.49612957573882    6.43697090784546
C           0.48813286541742   -3.44017548915392    6.42725511820832
C           0.33890543478768   -2.73845232478299    7.60696851931809
C          -0.36338971071406   -3.30415098092806    8.68229276624552
C          -0.60548462619127   -2.82939309419605    9.96867661394214
C          -0.22772471434858   -1.51550254453807   10.56142377635315
C           1.28376539852364   -1.22880711436543   10.45999304650469
N           1.69859784792082   -0.43676136569942   11.60437061390494
C          -1.05564812128183   -0.38533485544936    9.91910962904878
N          -2.45948651593649   -0.57876899369180   10.23765155193074
C          -1.33790623979505   -3.86080309164592   10.65748296232359
C          -1.77692404959733   -3.93418811535509   11.92847450469143
C          -2.49673656026711   -5.13432603448783   12.43212866222833
C          -2.67626471771423   -6.23518803116498   11.42728635782525
C          -2.23515662461204   -6.13674305969738   10.15728232870777
C          -1.54737770712582   -4.98052635795386    9.72500584487866
C          -0.94987329587384   -4.62942577917947    8.52996233849930
C          -0.82021307927981   -5.30714957219165    7.29541187173893
C          -0.12400978712125   -4.73016777067292    6.28511167635123
C          -3.88935792596003   -4.77583374228080   12.85976418841734
C          -4.47004086119519   -5.27289951013458   13.96504572007503
C          -5.81104330895416   -4.98777529713452   14.33817322366871
C          -6.52537643130677   -5.58355303734879   15.33289221041379
C          -7.73925462225896   -4.91700256374279   15.87537243242041
O          -8.34275315273050   -3.99805204256870   15.38281305558724
C          -7.99738624111777   -5.60151214807905   17.16884796382628
C          -7.09558708250991   -6.67142601574274   17.32553383108100
C          -6.26452418409067   -6.76348481010222   16.12454310681779
C          -5.55567365916476   -7.87320335276608   15.73954896268733
C          -5.38279208920988   -9.01742437350280   16.54633949731640
N          -5.19288518514735   -9.96422065336326   17.16640329697843
C          -5.00513632104623   -8.05553392128455   14.45418495305167
N          -4.57716147472506   -8.28662658765454   13.41433730156263
C          -7.10841278303912   -7.44625112732899   18.47268990469847
C          -8.03618651288325   -7.13762753940265   19.45704898754105
C          -8.94424391558873   -6.09028104129366   19.31463011625449
C          -8.92459277373936   -5.31195965724338   18.15426612317695
F          -9.78966371519292   -4.31208494574154   18.02569823257849
F          -9.82492365599643   -5.82905046772475   20.28343924737926
F          -8.05960883975544   -7.86224043461574   20.57732304918850
H           7.65274133641587    6.63312927820647    0.98576299716144
H           6.01719902843275    7.56008703567060    2.55784765986285
H           4.06411562423469    3.74909819663082    2.88340644851650
H           8.03139547297824    1.92837794971558   -1.59697619843407
H           5.57541945223065    0.00445033920443    0.48377435936221
H           7.05607854019422   -2.39966278484017   -3.76938064938458
H           2.95585440983427   -5.24675195773206   -0.04890982169791
H           3.50310273829411   -6.66483557335820   -2.13892800729755
H           4.28499978718076   -1.21220847453063    1.58737379056110
H           2.73611244861495   -3.84699584548314    1.48137768684721
H           4.16822752393840   -0.00980609926895    3.32440199547119
H           6.35918658528481    3.43423702964115    4.68016543436816
H           6.16367459742263    2.90568178873235    6.38060018548791
H           4.95072341052968    3.97311697204809    5.65251098550432
H           0.77482514077084   -1.76047397121669    7.71407979154067
H          -0.47470970561959   -1.52967842823073   11.62588831008241
H           1.51060063351025   -0.74755898191929    9.49585607653320
H           1.83061549245805   -2.17513235512716   10.50126699005751
H           1.26279945560672    0.47903333245949   11.57598181286293
H           2.70275168133104   -0.29783614168217   11.59238639643519
H          -0.85099528761712   -0.36051916906288    8.83620024714608
H          -0.75073619819492    0.57347244782837   10.34625457048229
H          -2.79999029337795   -1.42933208440771    9.80031365100822
H          -3.01385348932178    0.19598943722141    9.89122352636504
H          -1.63791331551090   -3.12366039056763   12.62951414291320
H          -1.95512400565294   -5.52953292341503   13.30271883797980
H          -3.20105079173199   -7.10830002289363   11.78173895885335
H          -2.38125504921579   -6.95215667903165    9.46392369039431
H          -1.26841111242883   -6.28173383559425    7.17247200654083
H          -0.00709299222389   -5.24249480225148    5.34111514237220
H          -4.45195668448127   -4.16115418404989   12.17143308727089
H          -3.88969226098052   -5.90446610320794   14.62441808179975
H          -6.29891613581876   -4.15575280141096   13.84279549072359
H          -6.42755495040268   -8.26537760369449   18.63572270746245
