102
 SCF done       -193.235708768397          0.000660948106
C          -2.76361508424498   -1.80433307427799    1.40060250657377
O          -2.60109442448522   -2.75732997139162    2.14623954403820
C          -2.03461283054979   -0.52361117178071    1.52533906852775
C          -2.57560631123951    0.41383064529238    0.63302722618373
C          -2.04239071712960    1.69204224037180    0.57985347358312
C          -0.96470496286845    2.00168526572325    1.39746056566106
C          -0.43177569253538    1.04824118059979    2.25091246264994
C          -0.96330745407444   -0.23028162304586    2.34148353178722
Br          1.08178132574709    1.49485016244792    3.30850991350330
C          -3.64530574867344   -0.23655599505280   -0.12152639160710
C          -4.45833221108358    0.41339406438657   -1.01921337642432
C          -4.36768820939501    1.79206385599809   -1.30366097976947
N          -4.33945042284714    2.90617259435490   -1.57945676694609
C          -5.52098592686281   -0.15591092772895   -1.74444398302168
N          -6.42365395967603   -0.53504562910573   -2.34842907931690
C          -3.68249643133137   -1.63463626665247    0.26901313480397
C          -4.41276294683967   -2.57324957121754   -0.43780411314167
C          -4.58403436815205   -3.96368136434370   -0.33295458062990
C          -4.11236488549350   -4.80106502915701    0.66965736298856
C          -4.33959860724682   -6.16046544400799    0.75253462427375
C          -5.11654137940504   -6.85698429088670   -0.28379690705583
C          -5.65093951553359   -6.26281435897356   -1.37516815255412
S          -5.52637148291674   -4.58873924854704   -1.69969491835348
C          -5.14904557586321   -8.22222720961331    0.10337946909815
C          -4.42734517326729   -8.38969358426912    1.28792910020046
C          -4.42812477223940   -9.73515080649557    1.72116693412584
C          -5.13314009148960  -10.52934713491864    0.87450411674248
S          -5.82297591817337   -9.68901155004974   -0.47568552577936
C          -3.91050758108364   -7.12124570310626    1.72013839057937
C          -3.11622994232186   -7.00378513629158    2.87536784611482
C          -2.67468068508584   -5.85394306647752    3.46503329336803
C          -1.82716836354256   -5.75579234594084    4.58833990405063
C          -1.48013136889315   -4.50160690588091    5.06850507515815
C          -0.65658491307864   -4.25291282836325    6.14974684308958
C          -0.02869627649924   -5.33750545648880    6.90162382333763
C          -0.21742184557927   -6.64666419001510    6.61823911843135
S          -1.21353679079554   -7.22058166993106    5.34205216787068
C           0.74447288797791   -4.69322057214215    7.90931451898349
C           0.60582647893881   -3.30484955942958    7.81440814780760
C           1.35897881129970   -2.63226455992567    8.80195612127249
C           2.03173942863669   -3.50291802631273    9.59895638626949
S           1.78226721689339   -5.16669119777627    9.19290820488234
C          -0.27782458932853   -3.00345844067954    6.72112346535037
C          -0.78438075672079   -1.79144487661664    6.24429175852826
C          -0.57258124747749   -0.50398167243942    6.66366336903748
C          -1.23782136711004    0.58656798185998    6.05572822316696
C          -2.33171404167563    0.42609983121849    5.21381712992063
C          -2.90839838418205    1.41419465809152    4.45056614859666
C          -2.42092398782744    2.78782940802034    4.46013348587385
C          -1.45552760736231    3.21677736537029    5.30776177168599
S          -0.61643199576220    2.19001862255769    6.40133639315908
C          -3.18731009280502    3.45783225772995    3.46345465160499
C          -4.10844215910301    2.58031806034839    2.88037863747695
C          -4.88022677508709    3.21153193345838    1.88062408305956
C          -4.52276042947677    4.51242729523757    1.72148701927135
S          -3.25118640432262    5.02981864673557    2.77520756800207
C          -3.96241258082956    1.28401632945330    3.49338015330593
C          -4.61270680877981    0.07927662488739    3.25327808003103
C          -5.55362077585217   -0.23235738938654    2.29059510386244
C          -6.02177968637551   -1.54082199136125    2.22414877687174
C          -6.88175597198231   -2.23423289372485    1.39279107404193
C          -6.94604941716922   -3.68807821104993    1.65195475626799
O          -6.34914208351230   -4.30547590800855    2.51376439063914
C          -7.83606802739139   -4.25117636431027    0.62084675991921
C          -8.29021389619132   -3.21025232269207   -0.20388189518681
C          -7.78196003739030   -1.92974306946537    0.31116871442513
C          -8.22424154221379   -0.71818698621029   -0.16400389238189
C          -9.25873609283258   -0.57286544031709   -1.11435035669780
N         -10.12568975834686   -0.36904541115652   -1.83856656483911
C          -7.78883994990419    0.55804708291728    0.22545904011262
N          -7.47466935997759    1.64036595512552    0.45345387864068
C          -9.04837806240340   -3.51609435539188   -1.32359043460079
C          -9.35357027788435   -4.84534759862725   -1.58342863360769
C          -8.91590962568350   -5.85098068983869   -0.73449607718575
C          -8.14824446994673   -5.57318777460264    0.38698773306261
Br         -9.32902598753880   -7.66435064801091   -1.14146761459380
H          -2.43222660722265    2.44507744329100   -0.08391565597752
H          -0.53109238184565    2.98938222581022    1.36052875505018
H          -0.54731395581352   -0.97108152389102    3.00717165070356
H          -4.92861340141803   -2.16657064415039   -1.30046460672890
H          -3.53214248385287   -4.30703152036889    1.42973012445244
H          -6.19743309411419   -6.81704598683374   -2.12249182284715
H          -3.94087014847154  -10.09977379956215    2.60715706498834
H          -5.30245702590399  -11.58535383499917    0.95491591366687
H          -2.84188472929242   -7.94602360116052    3.33753927710996
H          -2.99102981590794   -4.90168730160639    3.07621800803403
H          -1.89882594828229   -3.67160908566600    4.51623930318922
H           0.24826356721951   -7.43739185427178    7.18480834493356
H           1.41045025103459   -1.56628609480207    8.92433539320918
H           2.67752192027915   -3.27242284216927   10.42359937373706
H          -1.44779875598279   -1.92064080649321    5.40146224823757
H           0.14934276861436   -0.28402656902475    7.43448240888810
H          -2.75032426701390   -0.56533952455264    5.14110830648974
H          -1.13046775200278    4.24374332886488    5.35155449777935
H          -5.66846774930046    2.75550859534566    1.31057205551466
H          -4.93436151266529    5.22106788666918    1.03060954888112
H          -4.32077277171347   -0.74317237627085    3.89663757452906
H          -5.90138748958379    0.52980239756514    1.61907421811786
H          -5.58108920980960   -2.21292358064339    2.96005325232912
H          -9.38645775850115   -2.75541136331295   -2.00666341459433
H          -9.93378393683445   -5.09900517642973   -2.45731755851846
H          -7.79107674005238   -6.35042894016750    1.04498094070723
