80
 SCF done       -145.413904039804          0.000438501119
C           1.39834987308524   -8.05891255084352    2.99336923364404
O           0.35183868612525   -7.78193019683084    3.56668610426161
C           2.74310944395405   -7.91724105531969    3.59163349967186
C           3.70082272628477   -8.47065059568734    2.72644864176697
C           5.03834976149161   -8.45177060348104    3.08899875890339
C           5.39812892980655   -7.86851174355535    4.29759382655936
C           4.43544532404435   -7.31663338850619    5.12887724608563
C           3.08766399331128   -7.33997914451260    4.79468313136479
Br          4.95727343002487   -6.49451084274732    6.76432226357979
C           3.01048532576597   -8.95375685703240    1.52911256171637
C           3.63420403372454   -9.48266801495132    0.42458727286095
C           5.02076668287973   -9.72036427551461    0.34304861456715
N           6.14030770796085   -9.94380083483273    0.21634126851502
C           3.00374440352940   -9.83103523828889   -0.78707772416595
N           2.57751707609977  -10.11139151698366   -1.81685713978968
C           1.60089154198968   -8.67724804295340    1.68417538916830
C           0.62656103636715   -9.08552416382680    0.78235811569953
C          -0.68905147415917   -8.63236112239264    0.64071395063136
C          -1.18313259553069   -7.44313039145666    1.16248855322380
C          -2.45937195646209   -6.95879687722235    0.97035986389302
C          -3.38463768297400   -7.58162511157105    0.01517967804497
C          -3.13075018066147   -8.74852208903000   -0.61865556365398
S          -1.69646111239072   -9.66162840280603   -0.39546171512139
C          -4.48392497257640   -6.68541221064175   -0.07599333543519
C          -4.28114230351539   -5.58988782779395    0.77388517715798
C          -5.35843937597335   -4.67519603582387    0.72943232240061
C          -6.32302425351414   -5.08327891569491   -0.13311600761958
S          -5.97448473030374   -6.59016054097510   -0.92024287199904
C          -3.04603796477647   -5.76201253911498    1.47385737184967
C          -2.53472768957137   -4.94867489084526    2.50674315175665
C          -1.66586662721334   -5.43556295726715    3.44057612127691
C          -0.95059107030745   -4.73782120145961    4.43087110287345
N          -0.11995419447196   -5.46370488500922    5.25980819169728
C           0.52505329624851   -4.60700279686493    6.08537911895463
C           1.44588114407821   -4.52391930653472    7.11933264082879
C           1.55533998557735   -3.15958161973680    7.43501260438058
N           0.72172769337759   -2.43012227020009    6.60825539305830
C           0.06938708163021   -3.28837821949122    5.78084625793592
C          -0.85224770279361   -3.36949530412227    4.74958722070174
C           2.34676160336817   -2.52618370370381    8.41876033378159
C           3.07052951079323   -3.18632456883770    9.36302385974859
C           3.82413788130039   -2.55958858099606   10.37935382203859
C           4.18379284930026   -1.14158488031383   10.50505746645221
N           4.86206859962402   -0.84782530644358   11.57386729774325
C           5.00354849931901   -2.02849944877362   12.25383783846463
C           4.38237068240900   -3.12700717603663   11.51009509116091
C           4.48816042823191   -4.35104861894637   12.25423154396559
S           3.92640953790918   -5.84099462145016   11.83314995301489
C           5.17100883502818   -3.97028166479481   13.46613663911535
C           5.48606406919592   -2.53589094945204   13.43366616408642
N           6.10070522631025   -2.15387204500569   14.59355931786647
C           6.16236928889169   -3.22827338907143   15.32462891740680
C           5.58426428849697   -4.42535682243656   14.69875169434130
C           5.45823990052716   -5.72906108033243   15.25159884553298
C           5.82446056268393   -6.08053708592290   16.50343491815882
C           5.64981496404033   -7.40373198825223   17.02687995916920
C           5.98325175153020   -7.75250904810223   18.27083159332560
H           5.80353777265477   -8.87537403765895    2.45986149732151
H           6.43657162278685   -7.84322822552918    4.59011224730082
H           2.34376397653177   -6.91291774573187    5.44808768022277
H           0.91454878411597   -9.86397715908392    0.08597332654927
H          -0.47855307411969   -6.83147657072684    1.70186873591681
H          -3.82806717015338   -9.19878046035229   -1.30755535673148
H          -5.41587865462894   -3.76640482545037    1.30024290894754
H          -7.24633766990734   -4.59100657034175   -0.36823525117646
H          -2.88765012520656   -3.92829491935573    2.56672497023036
H          -1.48728346626742   -6.50142648702610    3.44910965814741
H           0.03914357694252   -6.45335972807243    5.12044410454032
H           1.98614303363865   -5.31485224439156    7.59795345921149
H           0.60607505233352   -1.43233581242880    6.65391132384707
H          -1.39365533826923   -2.57646715275477    4.27476383509897
H           2.32986292300006   -1.44358233653399    8.42356416358644
H           3.05105876048063   -4.26648004505276    9.39159358310425
H           3.95155099863374   -0.37203777576756    9.78923255678820
H           6.61573813407056   -3.18932162948543   16.29950775560906
H           5.01380706572887   -6.47053551673962   14.59917381499031
H           6.26437099286806   -5.35006080971379   17.16889669280275
H           5.21676881967067   -8.13394628277138   16.35542548762763
H           6.41354981301351   -7.04292401064684   18.95875707560382
H           5.83655240297417   -8.75203409359064   18.64134018388852
