107
 SCF done       -194.586195554449          0.019296820912
C           2.38580498405403   -6.30785573188545    3.18630290804465
O           2.12886322977382   -5.12244401409974    3.04902891502286
C           2.90435040039735   -6.91097526208359    4.43172423049615
C           3.29939384426359   -8.23475139743764    4.18100333053816
C           3.79451955073013   -9.00973531059540    5.21840526674902
C           3.89469976938901   -8.44610850898314    6.48313005285523
C           3.51494979818261   -7.12985881568884    6.70204715638044
C           3.01096158771583   -6.33547789356507    5.68079677809190
Br          3.71388806394267   -6.38902697523441    8.43558714208014
C           3.06742583790357   -8.52283373629395    2.76679960968215
C           3.53133874809096   -9.63889514728213    2.11690090466863
C           4.26363725376623  -10.66746019982318    2.74642088103248
N           4.87017397002796  -11.53981328909064    3.18419875957771
C           3.42148552247314   -9.90766990572252    0.73634988524037
N           3.40066185155067  -10.20947219648814   -0.37247963644875
C           2.34676314773974   -7.39721390731178    2.19616524350659
C           1.71620244974930   -7.47888456209195    0.97010556240308
C           0.83422266654343   -6.61900479570838    0.29599388565775
C           0.38779650348509   -5.38385496036165    0.72972914248787
C          -0.55305784197173   -4.61005842232192    0.08093831752448
C          -1.04721106605450   -4.93367754224457   -1.26275966817964
C          -0.75112906620933   -6.08995811656042   -1.89981614086758
S           0.23628245727168   -7.31820939185440   -1.22754159556568
C          -1.80928035272155   -3.80170203455348   -1.65631711973262
C          -1.80726836708245   -2.84291570582376   -0.63075581478524
C          -2.56777894382493   -1.70048187166678   -0.97082438059341
C          -3.10798559421625   -1.81052741763195   -2.21045164069882
S          -2.72497215831582   -3.29924625033602   -3.01760510559897
C          -1.06030664655833   -3.34743435936571    0.47606046025386
C          -0.78696912855099   -2.73836876025281    1.72464335703749
C          -0.58530712342120   -3.47695977204607    2.84978339327988
C           0.01383851758058   -3.06447240366304    4.06339442496408
S          -0.24811637870553   -4.03673030234356    5.47619875193971
C           0.82333827195601   -3.05453539973238    6.43819797261278
C           1.33642757949522   -2.00554609828014    5.67416889135985
C           0.91394149038028   -2.03699514150737    4.33540558618190
C           1.51522047388553   -1.16317622021092    3.26451100102496
N           1.78158876420519   -1.95371298565994    2.07238331054568
C           2.76939262265995   -0.46677911699668    3.81478341528911
C           2.45280722583656    0.17165986725513    5.15594217640790
C           2.22123032079176   -0.91331806601413    6.21840500781436
N           1.64209427897120   -0.38286678564046    7.44683720518235
C           1.05739530925181   -3.51359370384760    7.76092514083250
C           1.98420172999551   -3.04979317444077    8.63533014234010
C           2.24903654992235   -3.58228653527828    9.92909560884166
C           1.51879211502764   -4.55750875245513   10.57441058773887
C           1.82605570518770   -5.07142467986777   11.82806522046742
C           3.06825213428435   -4.71457948519932   12.51586088287928
C           3.91948635182907   -3.75303245647028   12.08890977767101
S           3.66271676568349   -2.84774101276084   10.66433576575244
C           3.13664103444380   -5.56305408287623   13.65507112188064
C           2.01309739619381   -6.38673856501867   13.69599603730296
C           2.02339374955795   -7.24511820382759   14.81649406252631
C           3.13378910852929   -7.05705314008732   15.57779013870241
S           4.20243788965805   -5.83713685505521   14.97408313480060
C           1.15498221078556   -6.06614912613735   12.58243698910098
C          -0.09925665770114   -6.65175592414603   12.36860399486929
C          -1.13960535241133   -6.13653907305468   11.63407278139015
C          -2.37703892803907   -6.77695321532642   11.48247549876347
C          -2.66192599266082   -8.11558258000355   11.63908422044548
C          -4.03232582267206   -8.54443140388229   11.98177692500701
O          -5.04513643289870   -7.87905547659674   11.95587722301053
C          -3.89272595865927   -9.95532030460946   12.42278228152676
C          -2.56510161007163  -10.37361742016773   12.22985162448347
C          -1.81881982364803   -9.27886181608858   11.60657939153617
C          -0.64637176421777   -9.42536918673460   10.90031886981305
C           0.08670549542273  -10.62270858198018   10.84122189045744
N           0.71794540864989  -11.57562505028784   10.79669460237417
C          -0.09093266484700   -8.41444779758028   10.09511932361724
N           0.37234316666918   -7.64584000617544    9.37947790844181
C          -2.18237473586256  -11.64586830836232   12.61895354483307
C          -3.13100098678315  -12.48268737065611   13.19052954736457
C          -4.43894137272901  -12.05424074462192   13.35789431617455
C          -4.84504527774759  -10.78275218290425   12.97756518474114
Br         -5.70543992210849  -13.24091843309891   14.13784059488187
H           4.09480518299171  -10.03391316943720    5.06962691561936
H           4.27275448034065   -9.03738217235970    7.30309726425335
H           2.70854127527074   -5.31372590988478    5.85283817834534
H           1.86244718472369   -8.41816652147150    0.44877472554977
H           0.83477112901550   -4.98736262992127    1.62911182358082
H          -1.12905275324239   -6.32908938359661   -2.88191157161432
H          -2.70651390024117   -0.84607632789344   -0.33393881384620
H          -3.72583150272411   -1.10096682254374   -2.72487301278646
H          -0.73275609910391   -1.66236149460775    1.75359054841388
H          -0.91509811297519   -4.50855784478216    2.84158467003155
H           0.79090871765106   -0.38269506090394    2.98177824771639
H           2.23322261803242   -2.82693530137883    2.31974888564092
H           2.38717099536369   -1.44230794110400    1.44233882712272
H           3.10674720446763    0.28642862170622    3.09892400142226
H           3.56783335665062   -1.20390424602450    3.93679534232476
H           1.55115459185834    0.78430435863920    5.06097756182756
H           3.26960380270274    0.82124901599244    5.47887677935822
H           3.19645505977699   -1.34805416593172    6.48157320603271
H           0.70603854192950   -0.03698830527117    7.27014479062825
H           2.20123723855933    0.39055131578497    7.78929305075882
H           0.45951440254105   -4.37225309695403    8.03681960548426
H           2.59913543716179   -2.21242552724154    8.35573971291912
H           0.67831726040263   -4.98033539395421   10.04651094913568
H           4.81427193687888   -3.48837291769864   12.62982165677781
H           1.26040684675936   -7.96434492678741   15.05373103158029
H           3.40434667704286   -7.56797076334815   16.48101127543963
H          -0.28766372474166   -7.55916213165461   12.93134388729769
H          -1.06741715142682   -5.12040759676813   11.26617343785846
H          -3.24032154398258   -6.14866037202260   11.29295478084410
H          -1.16882691196656  -11.99372498371679   12.49863184034206
H          -2.84929051268820  -13.47633508530988   13.50671371357411
H          -5.86028906019921  -10.44802966148320   13.10766053298419
