141
 SCF done       -221.347460497224          0.000842319064
C          -3.97599527073660   -1.04912691850223    0.44133083136597
O          -4.23351572311047   -2.01100736700845   -0.24616510845583
C          -4.04703013945811    0.36724108273422    0.01076798032680
C          -3.67279964751629    1.21196974236050    1.06945284376723
C          -3.65468800747924    2.58657308787156    0.87668873330015
C          -4.01277591806372    3.09080738203813   -0.36399201076496
C          -4.38395395392241    2.23685207791353   -1.39510064476237
C          -4.40559305878617    0.85910331113120   -1.22745568688724
Br         -4.86848421538248    2.97561213865687   -3.07746066966469
C          -3.35536851465881    0.39035485007769    2.23159538114031
C          -3.10005247192200    0.85408326404875    3.49396094545460
C          -3.04401237974392    2.22185909105291    3.83558309515195
N          -2.97440562150197    3.31876286787049    4.16596416943337
C          -2.90223775022923    0.03721106133744    4.62859512902966
N          -2.75918697260856   -0.55901962028515    5.59917563060265
C          -3.45357012318897   -1.00459186150679    1.83097859101731
C          -2.91818132039415   -2.05071842696696    2.51894377049707
C          -3.02392203285858   -3.45056858261487    2.22451638577020
C          -4.18652807487994   -4.01758664420241    1.67612082253335
C          -4.22154739906796   -5.36665905922284    1.42491119303950
C          -3.08407582397560   -6.16355687939248    1.65533130640647
C          -1.94211660413816   -5.61965964071509    2.23163093971075
C          -1.93329977650031   -4.27841464811771    2.54235017332253
C          -3.35762098556793   -7.50563666493376    1.19386114545782
C          -4.66854634988799   -7.54463207868259    0.69154178030904
C          -5.34869342989544   -6.20329967066120    0.86520780457574
C          -6.48134393621837   -6.40435696004929    1.90122848713150
C          -7.14260537670281   -5.13334357793540    2.41742015308831
C          -5.88783652295176   -5.64833828195732   -0.46104106880783
C          -4.79151021257943   -5.46550390208215   -1.50383504479666
C          -5.18272739152873   -8.71173276316286    0.17610193585686
C          -4.38399265004831   -9.85801816684596    0.14029690531969
C          -3.07712469732915   -9.80227340250550    0.63055885306556
C          -2.55741673184626   -8.63845082008148    1.16206546990682
C          -4.91544321520618  -11.12183835538817   -0.38518205019063
C          -4.12314684834977  -11.92986144130955   -1.20612921099495
C          -4.61804739570734  -13.13171977558589   -1.65871185384040
C          -5.92389493201659  -13.52755868372544   -1.32502024045792
C          -6.71863042186601  -12.72905591415640   -0.51877702430156
C          -6.20557638687870  -11.53353703465246   -0.05113753391503
C          -6.20800618293571  -14.78904820629022   -1.98178157938351
C          -5.08379788702024  -15.16020298318425   -2.73408499098929
C          -3.95521193897778  -14.17012076559225   -2.53574018770277
C          -3.45847680174429  -13.57970463885944   -3.86313931864572
C          -4.58636254566256  -12.95117807006857   -4.67384050277324
C          -2.82905852668970  -14.92228897070228   -1.78753652339759
C          -1.66496677750931  -14.06857921396902   -1.30265539776495
C          -5.09229786267648  -16.31618689420837   -3.47934309816735
C          -6.22771776486309  -17.13068818844071   -3.46827298779584
C          -7.33593876697036  -16.75805718976509   -2.70723020044161
C          -7.33973403847837  -15.58852606364233   -1.96988947999727
C          -6.24570764348648  -18.37632802235284   -4.24551344332801
C          -5.76227212093507  -18.39439029222902   -5.55669108106741
C          -5.78748519580743  -19.57083811775036   -6.26871080976464
C          -6.27424716624262  -20.75031558869699   -5.68100439441677
C          -6.75174782730426  -20.74114043490151   -4.37866860333645
C          -6.73946275888633  -19.55181814614356   -3.67589557775846
C          -6.17690112195313  -21.82116063240455   -6.64818306156462
C          -5.63665876074733  -21.29988669762104   -7.83894809294700
C          -5.34480607082011  -19.82527079260890   -7.69031045952984
C          -6.16422671178089  -18.98915330798512   -8.69134332063029
C          -7.66479731950704  -19.22877825143412   -8.57420649293146
C          -3.84398672345517  -19.52883204321878   -7.87350600876544
C          -2.96775802907570  -20.24266908990605   -6.85138806883437
C          -5.45007933467234  -22.10485132889522   -8.93226385089403
C          -5.80790019437886  -23.46305476023648   -8.85982951319611
C          -6.37164577750827  -23.96058926673230   -7.67488631334098
C          -6.54098299419594  -23.15831475832830   -6.56703477154411
C          -5.68111191977807  -24.34421190313333   -9.98509259269549
C          -4.84304614895401  -24.28123972553766  -11.05159699567734
C          -5.16904317443504  -25.05472635959000  -12.27997080546229
O          -5.99245452126556  -25.93154130277800  -12.39320278917906
C          -4.30812563870890  -24.47706342523137  -13.33783727072402
C          -3.43915844325311  -23.52679432014096  -12.77034531676416
C          -3.65361493179742  -23.49868142259285  -11.32558392960374
C          -2.75544805218154  -23.03774437311068  -10.40055252328384
C          -1.58780813043698  -22.31832050060396  -10.72495386597182
N          -0.64774806389124  -21.69540917392321  -10.93940600252229
C          -2.86045465572569  -23.29692611140266   -9.01843890778543
N          -2.85778248105614  -23.52190564620390   -7.89309466096931
C          -2.55203214107146  -22.83427884832792  -13.58149602376524
C          -2.54240806515156  -23.10467011664138  -14.94112714231911
C          -3.39973572208154  -24.05617835938423  -15.47938587734239
C          -4.29922316666299  -24.75834506383365  -14.68840736859385
Br         -3.33961008281061  -24.40113449199683  -17.34692210931314
H          -3.36358641243701    3.26488644955137    1.66187425984654
H          -4.00137230641134    4.15662294856900   -0.53298906529292
H          -4.68945657676167    0.19098668232893   -2.02585245824174
H          -2.28455901085707   -1.81340490992434    3.36666370166650
H          -5.04080099793395   -3.39309431857083    1.47842237530721
H          -1.07978325602457   -6.23662387281148    2.43445831314882
H          -1.05716097053933   -3.83544741514066    2.99393979112669
H          -6.06625659305094   -6.95145185469902    2.75225613175672
H          -7.24025249226665   -7.04013906812893    1.43946608358666
H          -6.43833509585501   -4.53272875436593    2.98699523149859
H          -7.96758286693518   -5.39924059076155    3.07527246164236
H          -7.54169844071974   -4.53382194476157    1.60361376378145
H          -6.36284010037732   -4.68366688626377   -0.28229652599369
H          -6.64737810891486   -6.33483719442431   -0.84208929583577
H          -4.08764380434140   -4.70180026157536   -1.18304836248963
H          -5.22667874733154   -5.15089494678043   -2.44939089780352
H          -4.25075616803657   -6.39604772821757   -1.66528800572237
H          -6.18609053560985   -8.74885499116985   -0.22213398084663
H          -2.47259471565015  -10.69738079800557    0.61561901561005
H          -1.54903018710401   -8.61419035700565    1.54732564702212
H          -3.14456970777567  -11.58181876139371   -1.50069338629071
H          -7.72192935538927  -13.03268811679755   -0.25911575108797
H          -6.80449706926770  -10.91208388872021    0.59872359933826
H          -2.98708814984190  -14.37302121589806   -4.44757493454893
H          -2.70310880660716  -12.81990303376720   -3.65813647336386
H          -5.34604477776859  -13.69153584819651   -4.91530770652560
H          -4.19793217649168  -12.53901541314063   -5.60256553968951
H          -5.05899377340507  -12.14853806802103   -4.11186905760861
H          -2.44825981572153  -15.69804455855026   -2.45593577367910
H          -3.27751190831213  -15.42298445557734   -0.92503116841870
H          -1.19809444447733  -13.52897060644091   -2.12267504473794
H          -0.91211423024601  -14.71119121021392   -0.85056120761675
H          -1.99487943590704  -13.35649439052207   -0.55123140547218
H          -4.22690280458276  -16.61547363834859   -4.05301502046370
H          -8.21427417980232  -17.38712488805933   -2.71688267786393
H          -8.20920275813723  -15.30756225290601   -1.39443024292037
H          -5.39656363209595  -17.48146294916050   -6.00405403635717
H          -7.12433242548737  -21.64485488274334   -3.92033657726448
H          -7.09511583378593  -19.52890850399868   -2.65624495942042
H          -5.83435261790952  -19.23192326945731   -9.70398461188750
H          -5.95320442651078  -17.93204377008903   -8.51733880849597
H          -7.90562152479833  -20.27260471628991   -8.76426228717854
H          -8.19883725292194  -18.61566429981544   -9.29646855215658
H          -8.01705717533675  -18.97204762794332   -7.57763839718986
H          -3.69009092810072  -18.45034204190658   -7.79265050489159
H          -3.54684646299576  -19.83009028591241   -8.88095537472993
H          -3.21021195777912  -19.91661137108957   -5.84244432585852
H          -1.91998209831871  -20.02301144588734   -7.04337097158317
H          -3.10514677010508  -21.32029660406785   -6.90550260250915
H          -5.07694410599809  -21.69671195935301   -9.86077385294224
H          -6.64895101671233  -25.00360129501415   -7.63198621820063
H          -6.95837069796773  -23.56185727120864   -5.65717997662898
H          -6.40684034049769  -25.15135505698075  -10.03455339034067
H          -1.88289585878395  -22.08991733949441  -13.18093191455606
H          -1.86220424352507  -22.57364312010513  -15.58914773417368
H          -4.96678138053376  -25.49757098265935  -15.10317129112042
