100
 SCF done       -196.949017997457          0.000717547522
C           3.03041462541976   -7.39432014640801    2.41572937085020
O           1.91591394135758   -7.28190260844975    2.89538577121523
C           4.28565672900098   -7.46656229547171    3.19356409146211
C           5.36358740609074   -7.71063789488690    2.32775755754879
C           6.64478735399794   -7.81557366668394    2.84848561816594
C           6.82703351187623   -7.65932812408913    4.21585301634596
C           5.74597151327894   -7.40837586994343    5.04814490900515
C           4.45218743552721   -7.31818505726136    4.55437506708108
Br          6.03953687629964   -7.16661361271168    6.91221540807509
C           4.84985967196005   -7.78272576784470    0.95928076924769
C           5.62864896251916   -7.93357809687121   -0.16164789332942
C           7.02528581313314   -8.12465604063712   -0.12948174880338
N           8.16084735911424   -8.29071546143512   -0.17109010555944
C           5.17283081984916   -7.89307356968590   -1.49564184412634
N           4.89490800831638   -7.84423900235622   -2.60947279748597
C           3.41755166269352   -7.57798509696099    1.00846467645333
C           2.58233360310298   -7.69904823696672   -0.08614801835341
C           1.23814252994919   -7.32047758135054   -0.24112216429078
C           0.54962822190165   -6.43194762129681    0.56964472144722
C          -0.75980099102156   -6.03331605092386    0.38214397609479
C          -1.50767505371101   -6.38955516259577   -0.83097858189202
C          -1.04160087575838   -7.24012118804769   -1.77396638638516
S           0.48137806183178   -8.01797282068476   -1.68439889433148
C          -2.71238100127954   -5.64070336535186   -0.76143353954826
C          -2.73348954939980   -4.88119041744109    0.41696486227723
C          -3.92080956465354   -4.12344390905877    0.54098160787915
C          -4.74606591702691   -4.31580707220405   -0.51856771709698
S          -4.12873475600448   -5.42276766713648   -1.70418817431101
C          -1.54378804391057   -5.14359868362251    1.16484448781716
C          -1.24127640877672   -4.64121431617481    2.45266759475240
C          -0.40192317441054   -5.27925667028760    3.31441430498023
C           0.07376230276931   -4.79811499601334    4.55327193682729
C          -0.11865991019209   -3.58353348753998    5.19888764320686
C           0.61776355568567   -3.49360462540988    6.37573234298879
C           1.38020743083639   -4.65332864834684    6.63596118043211
S           1.17846978305606   -5.84393089478495    5.43482328340556
C           2.10852558071841   -4.45783945214886    7.82992733578701
C           1.81832344970162   -3.17195286567239    8.32545873735033
C           0.86157878919091   -2.53235874964660    7.43652494449452
C           0.29647147970276   -1.30016086378827    7.59224568147011
C          -0.66078166609361   -0.78883511402729    6.69250193321459
N          -1.43736501587427   -0.36423062503850    5.96339930264122
C           0.61947267997916   -0.46696305077984    8.68112348642315
N           0.87764205532939    0.20949753300408    9.57167624629381
C           2.48587310740498   -2.88547969094231    9.50905955456619
C           3.28317903839532   -3.94098272081302    9.93233453873043
S           3.20538566685586   -5.30319984131980    8.82696380801623
C           4.03331268770725   -4.03048786537502   11.13853085327268
C           3.98538612413839   -3.03508962442545   12.09297264009435
C           4.55021273286886   -3.11922455711335   13.35758346787930
C           5.48898471385200   -4.19199842839248   13.68749890970551
C           5.72998208984098   -5.25111653035354   12.87954426659691
S           4.94966511273170   -5.49968094707759   11.37456570543496
C           5.99666712947255   -3.86918738807161   14.97776458471060
C           5.37422803647660   -2.71516483741968   15.45433537412426
C           5.81109092722496   -2.37142029207787   16.75117516582353
C           6.73898349537397   -3.25109140533881   17.21336734052025
S           7.10976731107098   -4.52934766307800   16.10756695493252
C           4.42346577034618   -2.25024435909442   14.47335726814522
C           3.46492211672794   -1.25402656370895   14.71422383592756
C           2.33486096689760   -1.05256459491646   13.95963740236347
C           1.34245921096944   -0.11899261679582   14.24690575440983
C           0.18718158912259    0.11954059018637   13.53167446315023
C          -0.57649501766597    1.34228428258575   13.87211988894408
O          -0.41719007487171    2.05403688572947   14.83940107268903
C          -1.54586483117835    1.52517865807204   12.77042230907485
C          -1.43079312279665    0.44849581858117   11.87509909285401
C          -0.42110557733608   -0.49267740758956   12.38030936374607
C          -0.24750134039449   -1.75157223894519   11.84498816667498
C          -0.87730459917707   -2.21025993572282   10.67144813387358
N          -1.29093076084706   -2.67321717849565    9.70266010713368
C           0.52232474714722   -2.82718267502841   12.32614242312436
N           1.08697790339691   -3.79285484087270   12.59893854737541
C          -2.22749526336989    0.42592284024800   10.74067521423310
C          -3.11404024425625    1.46988788880442   10.51868217925261
C          -3.21258362929658    2.51663003056467   11.42290431836181
C          -2.42981544407832    2.56314647809555   12.56856327737075
Br         -4.44820649863775    3.91897754259638   11.08358827974673
H           7.49898296034478   -8.01259469208115    2.22231071190620
H           7.81905311573233   -7.73146335937133    4.63465876660169
H           3.60730492105224   -7.13467900620577    5.19954245794214
H           3.01287571561296   -8.16789036733591   -0.96336759957000
H           1.10822547354237   -5.98315865682896    1.37382731485907
H          -1.61128585725630   -7.50055891806827   -2.65226628604165
H          -4.15031603961240   -3.47151470050782    1.36379231892504
H          -5.70691996730011   -3.87233196473747   -0.69242559164030
H          -1.74199891620362   -3.73118710555550    2.75506898557544
H          -0.04264779495824   -6.26357290656211    3.05412491350591
H          -0.76145492787744   -2.81189009285300    4.81669542416345
H           2.40193266720331   -1.95113217027777   10.03150730123982
H           3.46899729505091   -2.13115778705450   11.81856990367408
H           6.40881571436487   -6.04456380810361   13.14958329970132
H           5.46836852487080   -1.52240322412561   17.31394256869363
H           7.24483920765564   -3.23431058327048   18.15889350472816
H           3.59139858455892   -0.66776794566297   15.61640520422346
H           2.17141415357679   -1.68373587699289   13.10853515196372
H           1.49636772080712    0.55366933783256   15.08477205169615
H          -2.17458413681796   -0.37241514305379   10.02009047906240
H          -3.73183935219791    1.46692626893679    9.63368374538250
H          -2.50036242249205    3.37463480358016   13.27618711047992
