95
 SCF done       -176.001883631491          0.000721328867
C          -1.16284236494449   -1.55974797800105   -1.18123873846423
O          -1.09456825389460   -2.65836286051838   -1.68605474451964
C          -0.16897226300199   -0.47365710697912   -1.33587366261950
C          -0.61021542994286    0.67956421332322   -0.66535469184978
C           0.17008115720184    1.82751352169724   -0.69313909410505
C           1.37173896718498    1.80134225410359   -1.38371431174306
C           1.78848915415312    0.64853472884678   -2.03742290709815
C           1.02381836656624   -0.50976753932605   -2.02812367741819
Br          3.44620003899872    0.66024581574459   -2.96582685637153
C          -1.89504876405547    0.39232085500830   -0.03659597743227
C          -2.57960941292436    1.23530678772866    0.79720011929290
C          -2.15951649161758    2.54449983373567    1.11483534071257
N          -1.87009358268829    3.61564189008568    1.40823154685839
C          -3.77510774788101    0.91465429436915    1.47626724700492
N          -4.73317769861451    0.72647003285763    2.08050286574833
C          -2.26703545748251   -0.97018677516889   -0.38522578413996
C          -3.50194687475275   -1.51732909908861   -0.20870203993214
C          -3.91132253371937   -2.87436395213510   -0.42910618919964
C          -3.06055929281447   -3.96765268236892   -0.18990914813557
C          -3.52776251744986   -5.24289162343533   -0.39216570231217
C          -4.85436869718779   -5.45461292712555   -0.81635653371913
C          -5.70945005042936   -4.38177187203523   -1.04075179444766
C          -5.23874527462625   -3.10587988618370   -0.83002770193608
C          -5.10332885867301   -6.87591855964308   -0.87668060595690
C          -3.93582952140447   -7.54825907277814   -0.47485085348300
C          -2.82355300305575   -6.56473074508692   -0.18150252034143
C          -1.71401107491853   -6.81002994711901   -1.23118517240753
C          -0.50638958445346   -5.88592679826737   -1.15837425716976
C          -2.29240060888278   -6.70898656345640    1.25316449452476
C          -3.40057641174546   -6.62632000856802    2.29716511412684
C          -3.90426986003690   -8.92053868006869   -0.42192592360169
C          -5.05722363013521   -9.63731785277605   -0.77311273552662
C          -6.21759023882788   -8.96138709035348   -1.17433479437249
C          -6.24648983642089   -7.58381845350072   -1.22712631505317
C          -5.04550866266973  -11.04092524235821   -0.72865527184519
C          -5.05190620698945  -12.25238486747917   -0.70684676199682
C          -5.03469739840085  -13.64029119397525   -0.68109553524403
S          -3.60773901600053  -14.50857413154344   -0.18557854432021
C          -4.41717541916815  -16.02886982656040   -0.44644789440373
C          -5.70836569617701  -15.84474872372469   -0.88981218258066
C          -6.05649434472715  -14.49979749217165   -1.02139286950744
C          -3.76225461791464  -17.23043263997478   -0.22026415465806
C          -3.16859164338476  -18.26653448343209   -0.01589048538870
C          -2.47335715771714  -19.46854042770758    0.15769935506732
C          -3.00762411027743  -20.66510534081703   -0.11220067593946
C          -2.27949314471941  -21.98505857074533   -0.00064832047900
C          -0.80000821905713  -21.81943299995566    0.12389177165803
N          -0.18353240086703  -21.56381201145008    1.25756447256732
S           1.41137960872892  -21.43466751151160    0.98593182171985
N           1.35037357501950  -21.70639547279523   -0.60998545406421
C           0.10156192522644  -21.90526777702697   -0.96900177742013
C          -0.30915406521565  -22.19441228903005   -2.38182359520925
C          -1.65528823600216  -22.85374603300373   -2.34387364145531
C          -2.54989713195538  -22.77313630570332   -1.24632583861211
N          -3.66519260845321  -23.43523424207380   -1.46157024575143
S          -3.60816708940015  -24.11618056659373   -2.93403169263427
N          -2.13644881342039  -23.57093703808852   -3.33484013589909
C          -0.38951705216791  -20.92258468856701   -3.16497200370787
C           0.27322658195591  -20.55774516706224   -4.29843630724668
C          -0.15480589228621  -19.22388614105754   -4.66345218625660
C          -1.13577593202739  -18.78961631933243   -3.67032237433457
O          -1.77000183930339  -17.77530954379937   -3.53606642249377
N          -1.21519475623470  -19.89009591278140   -2.79982957087363
C           0.52135222301236  -18.89683485684319   -5.78626218218853
O           1.34140824103090  -19.89089321879180   -6.17657569075222
C           1.24096152569768  -20.97841931393041   -5.28563690631293
O           1.88079043013632  -21.97860425837053   -5.43362095774855
H          -0.13737330216949    2.73441977538709   -0.19914157154982
H           1.99013018783504    2.68517540285460   -1.41623682040882
H           1.34012195439697   -1.40768018850514   -2.53605706875596
H          -4.29943030129265   -0.85160093223593    0.10192808881919
H          -2.07286786901984   -3.79324776580858    0.20251335386158
H          -6.72910336993249   -4.54647428476170   -1.35461582087268
H          -5.88892674842977   -2.25818404864019   -0.99188844461915
H          -2.16669434863561   -6.71844007290753   -2.22197090466167
H          -1.37804899758822   -7.84383278785032   -1.11723899355427
H          -0.78643712518271   -4.85667463520982   -1.35815558015729
H           0.21557606995558   -6.18815342908425   -1.91422431571081
H          -0.01837418126055   -5.94457493799478   -0.18878521477229
H          -1.56627392899478   -5.91829283468539    1.44418724366539
H          -1.77872902256487   -7.66842313489979    1.34287077093974
H          -3.92184360967928   -5.67354480729151    2.22996261614992
H          -2.98062303926406   -6.71780290498553    3.29624493817894
H          -4.12642872427307   -7.42422534339811    2.15628626466334
H          -3.01984978301969   -9.45835725850440   -0.11341306865224
H          -7.09052669402013   -9.53842599493420   -1.44167703744222
H          -7.14231584010903   -7.06673497264945   -1.53667785615247
H          -6.36769713081343  -16.66571159491992   -1.10872289189866
H          -7.01828340134327  -14.15225245951571   -1.35433757459664
H          -1.45829763589966  -19.37527200577879    0.52625633091397
H          -4.03233114032243  -20.74668832723916   -0.44784509890686
H          -2.67609441222517  -22.52112290418519    0.87007497841258
H           0.42488228255712  -22.83906950298631   -2.87452277720808
H          -1.81965502295826  -19.88913177128219   -1.98415523235509
H           0.51682013040249  -18.01162782344088   -6.39574004999261
