109
 SCF done       -214.210670926424          0.000693753667
C           3.56308558490514   -2.64082539135066    0.47179364528369
O           2.88465302580443   -3.38819953451768    1.15277958227479
C           4.05306854512204   -1.32963666839524    0.93795812535662
C           4.78595471665671   -0.70257325826002   -0.07936617038280
C           5.33683208349083    0.54871560413347    0.15933659430082
C           5.14511817910135    1.13849465581608    1.40131599012610
C           4.41492067145762    0.49265286038732    2.38937188107044
C           3.85198213181741   -0.75708988740404    2.17584850127143
Br          4.17799706851826    1.33575647757836    4.07750558409021
C           4.79646603833465   -1.58440790068389   -1.24777121450800
C           5.39328326337461   -1.26573154731045   -2.44210498031882
C           6.08622638329578   -0.05877452735941   -2.67716813260618
N           6.66618215506484    0.89620929666326   -2.94179166648815
C           5.41810009099684   -2.04304918582374   -3.61961881976068
N           5.49509676228796   -2.58437198652210   -4.63065005858731
C           4.06271200270819   -2.79455065916362   -0.90783958774618
C           3.93876244364897   -3.85346095364351   -1.78502994828264
C           3.28681897363879   -5.09757601304136   -1.70053149593152
C           2.54309245386871   -5.57174373590017   -0.63629775370349
C           1.90952714959459   -6.79595324668781   -0.58813829721565
C           1.95137523630715   -7.74735068470521   -1.70005845647240
C           2.61849493323573   -7.51035730869071   -2.85453667551084
S           3.49718247866408   -6.07492119388978   -3.16998670039795
C           1.17683971837434   -8.85365849044805   -1.26466951588515
C           0.67901731271478   -8.61934853580425    0.02802203145515
C          -0.09015436479338   -9.71218182460077    0.49337199218050
C          -0.15734603635489  -10.70956146051232   -0.42418252722247
S           0.70411924695061  -10.37896130291400   -1.89148432556347
C           1.12908916739592   -7.33309774731200    0.46958763498876
C           0.90909834921891   -6.64693856123522    1.68355674312090
C           0.12027104621175   -7.01398114322920    2.72533279830297
C          -0.01235994152013   -6.21474945200321    3.89219132905256
C          -0.82827966409941   -6.47246077048790    4.96743007541926
C          -0.76417574335064   -5.49886498910970    5.99315820363366
C           0.16104131811979   -4.47527562566782    5.65033250923979
S           0.89484541981663   -4.73204362438296    4.09604361607524
C           0.48917046509646   -3.37304907180468    6.43057534801741
O           1.40111814482123   -2.54763418845194    5.86541683807577
C           1.82605966676782   -1.36317752402440    6.49958091213322
C          -0.15847814354841   -3.26845642320115    7.67969699976127
C          -1.09951210597807   -4.28152569536513    8.01185105797540
C          -1.42843593546345   -5.37948480811791    7.23165592467266
O          -2.36155399402399   -6.19130613330088    7.79751546480771
C          -2.83654918551321   -7.34050870629306    7.14495340236187
S          -1.83336011337967   -4.02350221238491    9.56642038792555
C          -0.87484479073785   -2.57623279866787    9.79344487129156
C          -0.05564571617181   -2.31966798774845    8.72355376395683
C          -0.97465782761621   -1.80494916407993   10.99079355203714
C          -1.87941820252777   -2.09515954601029   12.00119487112714
C          -1.95976270637274   -1.37003916452761   13.19133410818251
C          -1.10142010996433   -0.32679061040594   13.50419035497171
C          -0.20044655172953    0.04984178378235   12.47173982974101
C          -0.14409513604415   -0.67097071110746   11.22437796939776
N           0.73229312937345   -0.05063443827034   10.45910087960359
O           1.17818595610472    0.98636893102048   11.16660255648161
N           0.62913822302844    1.06818839429559   12.37141152066843
C          -1.16210536504439    0.35407434352095   14.76217866181136
C          -0.08779097926554    0.84418892140913   15.43629846739520
C          -0.10545613730657    1.68729989514380   16.61815218455926
C          -1.20066686416989    2.28570122654568   17.18046930839565
C          -1.16091486884580    3.10640605479379   18.32895144145304
N          -1.20838513957121    3.77180134066533   19.26276836978668
C          -2.52376375123814    2.17025472857156   16.70164464729655
N          -3.62281516938277    2.12930440578443   16.37244292917310
C           1.27462987671455    1.83775035512494   17.07520013202811
C           2.12211690651392    1.11114604941703   16.21939170717816
C           1.31948470245665    0.43188448719297   15.17948713344995
O           1.71670393124275   -0.38769948765062   14.38366486758552
C           3.48591495459064    1.06061676298631   16.41748013454692
C           4.02096448860674    1.76240096654775   17.49589362626844
C           3.18534351292698    2.49443614325324   18.34657718022182
C           1.81104024254958    2.53914764668829   18.14513426332370
C           3.79480508822566    3.30579206261582   19.45920292637609
O           4.27366212179659    4.39460121758283   19.29411606576283
O           3.65381567564817    2.69247281705881   20.62858230256995
C           4.24547908476879    3.34606429224391   21.74567138658821
C           5.47348402649645    1.72620476479763   17.81236321499953
O           5.92961067829768    2.02546067518095   18.88860948791484
O           6.21049386431239    1.31333759442216   16.78152677704598
C           7.61266299303669    1.25634543226605   17.00470979588021
H           5.90851991913691    1.07334914388911   -0.58764003717860
H           5.56951457066386    2.11063340038864    1.60056243046193
H           3.28027302936458   -1.27257326599657    2.93233885486472
H           4.44345232582791   -3.71523586028914   -2.73413103962509
H           2.46236695467320   -4.91670041880617    0.21783644676296
H           2.64193046751551   -8.21932172004744   -3.66766919263795
H          -0.56887289958951   -9.77172182882598    1.45321783889197
H          -0.66979013409736  -11.64774359524031   -0.33705772056406
H           1.43012979987646   -5.70341570418822    1.78564861260630
H          -0.45437400238299   -7.92842289405857    2.70104340216786
H          -1.44599273283421   -7.35001050596962    4.98651378897066
H           2.51679058515678   -0.89306756317305    5.80059466464493
H           2.35422747665844   -1.57399401946226    7.43273562062665
H           0.99034903928975   -0.68413628815759    6.68544021860900
H          -2.04040725806322   -8.07608292553274    6.99605584196283
H          -3.30980580816938   -7.09462199753780    6.18984362880630
H          -3.58586182131754   -7.75931849928127    7.81638805584218
H           0.58705464006316   -1.46111170005288    8.73676886452811
H          -2.54977950992953   -2.93019794179205   11.85958191391495
H          -2.69078411026787   -1.67248397717427   13.92704540820968
H          -2.15008823969228    0.44708063659260   15.19543294095945
H           4.11923498134660    0.49043703089479   15.75647700483039
H           1.19377382873049    3.11070062733218   18.81908168812637
H           3.94774013443042    2.77784510144276   22.62288633521119
H           3.89291703587639    4.37715373119237   21.81183957968434
H           5.33107924600113    3.34495495105139   21.63448653946604
H           8.05963823033607    0.97385589539890   16.05520836333721
H           7.84361647719351    0.51654270528485   17.77411514137800
H           7.98291044726350    2.23002323555589   17.33146668142835
