132
 SCF done       -221.168208937303          0.000342717823
C           2.46286907924176   -2.27326517501999    2.59929796285234
O           1.98829993834181   -2.26155753549672    1.48444796750581
C           3.19495716495083   -1.14346750188982    3.21528320570694
C           3.62658165788657   -1.49515498352248    4.50346235257108
C           4.32549655129093   -0.56813086122444    5.26533208744226
C           4.58245980798337    0.68245607693716    4.72541857644232
C           4.15078548551894    1.00427700362369    3.44491595870716
C           3.44659409504619    0.09687250231689    2.66632463969979
Br          4.53272066897620    2.72967477719188    2.74686382380858
C           3.21050839512428   -2.86782842998937    4.77293144740972
C           3.57094486465045   -3.58582318111506    5.88287647920711
C           4.35104715057953   -3.06626763705707    6.93880290307575
N           4.97638658315147   -2.70995009239246    7.83303189171172
C           3.26543269838492   -4.93896807131056    6.14708639364989
N           3.08659897829139   -6.03211687288643    6.45230354462396
C           2.42876907483455   -3.33572163201091    3.63228883000768
C           1.72217018981946   -4.50550607181175    3.66380350675166
C           0.93704153306683   -5.22301774248347    2.70928346180294
C           0.19072856564472   -6.31441523836132    3.21203815348407
C          -0.57215921696436   -7.07012061374531    2.36426678389056
C          -0.60666231380348   -6.77959715301064    0.98536270511112
C           0.13671096969742   -5.72367461819071    0.47348061452045
C           0.89710577447457   -4.95614422238932    1.32938532362685
C          -1.47681329685923   -7.73152913472813    0.33762787064299
C          -1.98100897425216   -8.61307554829574    1.31038043222275
C          -1.44566942196141   -8.26232976071173    2.67815439834357
C          -0.62379588555474   -9.42106241208861    3.27350928990353
C           0.52063075508432   -9.86183021879443    2.36899462487736
C          -2.58331534783898   -7.88682850242863    3.64623084749553
C          -3.45142843357227   -6.74698634664761    3.12688246150977
C          -2.83894034223568   -9.62481136251996    0.95709682684329
C          -3.21697098134859   -9.77811708125170   -0.38405817499750
C          -2.70557170341621   -8.89232116879718   -1.34351208124588
C          -1.84253818815804   -7.87525306313168   -0.99416191024744
C          -4.12197603012109  -10.83840023514849   -0.76471883775261
C          -4.66400386121427  -11.09044059685035   -1.99064335917446
C          -5.52166808455739  -12.21697682798861   -2.01563826860310
C          -5.62150222662758  -12.83325867088814   -0.75720917936714
S          -4.66070146467819  -12.01144138468737    0.43102820124962
C          -6.39899460386408  -13.95782703982112   -0.50999286904608
O          -6.36811799816369  -14.39593174047423    0.78183639448669
C          -6.64679935805591  -15.73500481924814    1.11088835405383
C          -7.13051305914246  -14.46516046825719   -1.59636474880195
C          -7.00743127485252  -13.85351350395038   -2.88423855899302
C          -6.21738270871813  -12.74069225126567   -3.12370340458941
O          -6.00737377566403  -12.06419276148948   -4.28408184144148
C          -6.65564975569063  -12.44149607855668   -5.47409784688259
S          -8.00651662676895  -14.69429656078771   -4.05432677480584
C          -8.60919849755702  -15.79800397677088   -2.84247897305301
C          -8.05450509785495  -15.54727864286837   -1.62590861362814
C          -9.58126395718273  -16.80518381117776   -3.20584311095024
C         -10.26968834907807  -17.52700170136529   -2.21995724030875
C         -11.19388384728470  -18.47333157194685   -2.59327807297936
C         -11.48089863268991  -18.68733719837457   -3.95354053016244
C         -10.80334542970385  -17.98137283474163   -4.93695829264769
C          -9.85590769727875  -17.05519092698867   -4.55522925510504
C         -12.55640409487775  -19.64668455523304   -4.05417595248992
C         -12.93333423055054  -20.03210133280218   -2.75607347054446
C         -12.05475713522016  -19.36039472460372   -1.72282777583233
C         -11.22944782449534  -20.47169869845927   -1.03116375190269
C         -10.12268016268437  -19.99494404996651   -0.09977886167298
C         -12.88198200972455  -18.55162784418777   -0.71173100100682
C         -13.77154917513049  -17.51291692857493   -1.38535361454141
C         -13.95260494808708  -20.93045694917766   -2.56456856744614
C         -14.66241897550953  -21.41039176060909   -3.67577797305269
C         -14.26655203037933  -21.02898630138192   -4.96621381199536
C         -13.21096055043625  -20.16577049906657   -5.16358146642170
C         -15.75641758909458  -22.32272739030099   -3.47422008528471
C         -16.87955777811570  -22.45959695970285   -4.21996189745758
C         -17.69999527587473  -23.69659544346638   -4.11522367198315
O         -17.62728195915638  -24.55015467030026   -3.26387568936530
C         -18.57610864223281  -23.67572552922871   -5.30926283869998
C         -18.40062717267943  -22.46316180546294   -6.00218161222499
C         -17.45978718737170  -21.62882059985416   -5.26003706661666
C         -17.34869996646964  -20.26911461056851   -5.36875021403889
C         -18.00506668728260  -19.50556214676232   -6.35610686701207
N         -18.50296854827832  -18.84964711310945   -7.15536604080674
C         -16.64246653098961  -19.46261404721548   -4.45151818978685
N         -16.14868348076320  -18.74756807644313   -3.70214919562665
C         -19.10349686126412  -22.23292322788738   -7.17610159047703
C         -19.97277123014456  -23.21023583929455   -7.63476212764057
C         -20.14161383746659  -24.39501502518065   -6.92870572794761
C         -19.44525959195535  -24.65028885622821   -5.75492373050145
Br        -21.35331334286352  -25.69912795805696   -7.59160709583066
H           4.66645570670541   -0.79236514498697    6.26230828882598
H           5.12295989948637    1.41493643158324    5.30509029463453
H           3.10521499938632    0.33939841248535    1.67185792932086
H           1.73914735817360   -5.00550390138311    4.62625096245019
H           0.22792241239677   -6.53934565154898    4.26861175625889
H           0.12326073154295   -5.50412567269788   -0.58325420926952
H           1.47167793030883   -4.13790213339903    0.93231990204010
H          -1.29227293430008  -10.26620830763072    3.44909363916581
H          -0.22177579297743   -9.10514060363566    4.23814844666083
H           0.14226750005874  -10.20325661823353    1.40789287176311
H           1.06814510015345  -10.67859781990170    2.83304914583318
H           1.21280037069703   -9.04096820769800    2.19426498813288
H          -2.14581978090323   -7.60265941810092    4.60549349517451
H          -3.20523840135340   -8.76898016453755    3.81020434300342
H          -2.85730280779873   -5.84939947845372    2.96868043470615
H          -4.23501029325565   -6.51778581539117    3.84524059285963
H          -3.91925886860523   -7.01922276941354    2.18335276770669
H          -3.23156707223433  -10.30677086670524    1.69711295513200
H          -2.98853119268218   -9.01065866922325   -2.37710121263059
H          -1.45794948577536   -7.20327820026767   -1.74651058301932
H          -4.48459325374738  -10.50466045141321   -2.87227940137751
H          -6.12511013436586  -15.92001008709127    2.05076720056636
H          -6.27509306407824  -16.42734090826940    0.35141238244660
H          -7.71826945505410  -15.89225985140762    1.27202429057940
H          -6.30673200337433  -11.73345463339457   -6.22514418401070
H          -7.74259017965955  -12.36482718847377   -5.38690223223965
H          -6.38314063893491  -13.45429274737308   -5.78253863311416
H          -8.31286648094375  -16.12442367358344   -0.76008475388633
H         -10.09408890769232  -17.31148088857223   -1.17844867072011
H         -11.01889903335292  -18.14376119256545   -5.98203237003453
H          -9.31864828747565  -16.49673731022300   -5.30819290948230
H         -10.78368870198557  -21.09440920504678   -1.81160101116167
H         -11.92458148210196  -21.09734541851199   -0.46714963317396
H          -9.35574037999169  -19.45880672577137   -0.65236444321003
H          -9.65650547733702  -20.85602633164429    0.37441815248095
H         -10.51329040790347  -19.35111356282111    0.68384610027966
H         -12.20537297256794  -18.04824684252601   -0.01928787905595
H         -13.50049185172696  -19.24123490247509   -0.13365553918438
H         -13.17123848725194  -16.80351561850429   -1.95111543796156
H         -14.33429162170986  -16.96307952802553   -0.63456287602975
H         -14.47593439169842  -17.98414979632340   -2.06537902833258
H         -14.25577601414529  -21.23428486163996   -1.57365228220886
H         -14.77838861977208  -21.45288262644805   -5.81874983156378
H         -12.90675532536723  -19.89260850375381   -6.16259710880926
H         -15.65217455304058  -23.03178142572547   -2.65849819042757
H         -18.98016519450468  -21.32169178820071   -7.73867304391497
H         -20.52554158828055  -23.05111416484723   -8.54784082953736
H         -19.57251359096279  -25.57017674647179   -5.20564112810845
