104
 SCF done       -186.325543564650          0.000764454911
C          -1.07205154375744   -1.21312247712636    0.28844718969416
O          -0.68423510397065   -2.31757010404891   -0.02123634049758
C          -0.21263045668498   -0.04460496267822    0.58096902051402
C          -1.00851549453624    1.08649893951709    0.82917599886691
C          -0.39975138701815    2.30161049146965    1.11369758580722
C           0.98447024887647    2.36264468419374    1.14995412093314
C           1.75086482993736    1.22987462904737    0.90480455922852
C           1.16582876248995    0.00585724302319    0.61177447174917
Br          3.64475186708832    1.36227061126699    0.97227248341019
C          -2.41245918784765    0.70346541873146    0.72676416328118
C          -3.47993004788704    1.51177860175750    1.01035866744333
C          -3.36621709546810    2.86734509169260    1.38729250841378
N          -3.33842458712645    3.97288055720084    1.69392468016684
C          -4.83389340718089    1.11067607765122    0.99753837112362
N          -5.95453974786006    0.86366934152601    1.02659169865973
C          -2.46439668794383   -0.70334606495952    0.35502945099369
C          -3.57673615931608   -1.36383947238204   -0.06800093300460
C          -3.72948529069729   -2.76413752160491   -0.34700122861252
C          -3.05260136921950   -3.75690142969560    0.38159515651289
C          -3.27735952460535   -5.07984491059957    0.08808378672499
C          -4.19300287611644   -5.43828803645279   -0.92008767734712
C          -4.87722254337145   -4.46544629829413   -1.63882713631212
C          -4.65334183174213   -3.14109643075458   -1.33687936564775
C          -4.30044739553673   -6.87911813372527   -0.96019088434171
C          -3.46210686749389   -7.41405472405231    0.03143029595164
C          -2.70162505946687   -6.31568210144516    0.74293326669280
C          -1.20423434174695   -6.50974163854971    0.40584718184407
C          -0.25132831682595   -5.46165873188609    0.96352547339031
C          -2.95118677928030   -6.33111509210197    2.25890161397709
C          -4.43537358402065   -6.29420277522743    2.60582724263410
C          -3.39827139212338   -8.77176660025253    0.23325004164057
C          -4.18438723570396   -9.62468675684283   -0.55316594596945
C          -5.01785296523539   -9.07826615400370   -1.53615366947652
C          -5.07878555108584   -7.71582504692496   -1.74770132600847
C          -4.13977549039617  -11.06663678862604   -0.34246369221956
C          -3.03761862383946  -11.72617783399023    0.16225932705615
C          -2.99692351908452  -13.10852468296781    0.39629243869219
C          -4.05914819893578  -13.95438188028062    0.14654817317190
C          -5.21513731330248  -13.32701214939270   -0.39381723016409
C          -5.24936675214974  -11.90318386676317   -0.64106126582781
N          -6.44299266512443  -11.62734134889142   -1.13101620254684
O          -7.10444304798175  -12.77754001396621   -1.19087471277069
N          -6.38723441692942  -13.81293353156705   -0.75340865119461
C          -4.02410289710409  -15.36308635883724    0.41503241642205
C          -5.02803233047180  -16.26042709599074    0.17282899081034
C          -4.72164706130265  -17.58744755580222    0.56357286815672
C          -3.41966683675428  -17.65656971046164    1.12536153817463
S          -2.62122126481385  -16.11203134596886    1.14076374515949
C          -2.80635714848165  -18.79525970410106    1.63365437877435
O          -1.55926054846801  -18.58622194101347    2.10780751392011
C          -0.79106076793774  -19.62265376844845    2.67485312441239
C          -3.56128086169531  -19.98923629483022    1.58731127859299
C          -4.86070345424151  -19.92036568913526    1.01367341214225
C          -5.46702972887737  -18.78289882625938    0.49948918265206
O          -6.71267401718830  -18.99612649922192    0.00927304838249
C          -7.46036895623411  -17.96797559639225   -0.59474946768070
S          -5.67274052354516  -21.45710115680820    1.02115972758783
C          -4.29001586160104  -22.19899929180647    1.80021326768306
C          -3.27353696752013  -21.30100826605305    2.02263235592781
C          -4.29947259856669  -23.57430160652865    2.14122593879620
C          -5.41973271235420  -24.47876307124129    1.86008139452699
N          -5.24423794547173  -25.70093057121695    2.26010755568382
C          -4.00757900217079  -25.72018827296672    2.83739208384594
C          -3.37651695967589  -24.38403008943893    2.77528443786401
C          -2.08074176051346  -24.43449804527959    3.39339126593784
S          -0.96262415462568  -23.24549172065082    3.59495507537739
C          -1.94043948907402  -25.80815671195877    3.83401488833251
C          -3.15396418052089  -26.57876788027452    3.47147517262863
N          -3.03618347723511  -27.86855571644633    3.88485614165637
C          -1.86477339890712  -27.93806563947068    4.46243357453969
C          -1.12544588558390  -26.68798787033247    4.46891137048936
H          -0.97424039435750    3.19380113521803    1.30061297628626
H           1.47364566663300    3.29921448904149    1.36937127869306
H           1.75478402382618   -0.87698569353472    0.41681925582367
H          -4.46458213809283   -0.77064668511667   -0.25585678622933
H          -2.41090812793461   -3.47022881518589    1.19767182280992
H          -5.58697946197051   -4.74290066052362   -2.40317940854447
H          -5.18168124276904   -2.36884179203435   -1.87709958929999
H          -1.10797304956505   -6.52850126046769   -0.68285723692700
H          -0.90907699254316   -7.49367081398263    0.77936547391449
H          -0.45595731800157   -4.48186267386175    0.54441483238831
H           0.76822180048266   -5.73264203485476    0.69723924117357
H          -0.30984967190378   -5.40778227655307    2.04762184747193
H          -2.46008625379948   -5.46785710411349    2.70881067172549
H          -2.50109475390264   -7.23230215021249    2.68056860840103
H          -4.90176687648746   -5.39758477689960    2.20305182313787
H          -4.56726856825978   -6.29410008158064    3.68536644684226
H          -4.95083440830702   -7.16042749229952    2.19684419165660
H          -2.77919942236449   -9.17830816278605    1.01875145353353
H          -5.62125790704435   -9.74031309277875   -2.13556597185201
H          -5.72536468441181   -7.31187754950408   -2.51164871470804
H          -2.14327954053181  -11.16187846808220    0.37781055427581
H          -2.08766732528007  -13.53410045765377    0.79522436686958
H          -5.94790542788773  -15.93089011067985   -0.26830952273492
H          -0.59152820313947  -20.41797000780236    1.95295683302694
H          -1.26804474436473  -20.03684865189859    3.56606151175375
H           0.15043929310460  -19.15449970855956    2.95922618847548
H          -8.37761646384631  -18.44843497479242   -0.93373328316920
H          -6.93784067805242  -17.54251236758698   -1.45544827248109
H          -7.71193267317111  -17.17995119508031    0.12001760673239
H          -2.36366212078976  -21.62123639792336    2.49367966458084
H          -6.32745596312684  -24.18154773157684    1.36306781513975
H          -1.52049045788762  -28.86664911067373    4.88371539555920
H          -0.15204697324677  -26.54008115525906    4.89361993835908
