125
 SCF done       -256.506193439002          0.000734718335
C           2.51841043162755   -2.62775573888996    0.84792443983208
O           2.62888145493280   -3.59994128472723    0.13727010742842
C           3.35665274876979   -1.40881223969284    0.78526630522216
C           2.92066468646665   -0.47387337156217    1.73919562533338
C           3.56981113571187    0.74936589525170    1.84410588228043
C           4.63878156749826    1.01230573198385    1.00221208635570
C           5.05460584795921    0.07075766719717    0.06852663007971
C           4.41843445477959   -1.15619619866811   -0.05888480478441
Br          6.52783417630435    0.47568015364969   -1.05977591483459
C           1.79111754780389   -1.03959734665567    2.46792564331812
C           1.17655991323251   -0.47025368374604    3.55016615857640
C           1.52319564610535    0.79037225514290    4.08254297961219
N           1.75566364345256    1.80999681242851    4.55503973385983
C           0.13738677140786   -1.06090920374631    4.30187365313551
N          -0.69454699654191   -1.47917620682888    4.97340470954209
C           1.49591378010409   -2.34406343705334    1.89073594146716
C           0.36206941094725   -3.06005143809676    2.11649844101788
C           0.03173891854002   -4.37666527702738    1.64450311658249
C          -1.32040181024852   -4.66079349753335    1.37699700657837
C          -1.66949860399659   -5.89915757016847    0.90330286693255
C          -0.69000732430465   -6.89296798107685    0.72382141578896
C           0.63827237453943   -6.64130739594072    1.03963167402789
C           0.99156291003695   -5.38728630422191    1.49158167658662
C          -1.33731869267676   -8.08840263779517    0.23312947764228
C          -2.71595965228855   -7.83731987535864    0.10653602375733
C          -3.03057065035047   -6.40408376076182    0.47211089616650
C          -4.06880346941406   -6.30677148937492    1.60001682287682
C          -3.61479619317805   -7.01715062691071    2.87010988771569
C          -3.44756469696296   -5.57072135517305   -0.76366032167279
C          -4.70138148685609   -6.03655740735318   -1.49157439893612
C          -3.57047120892327   -8.83941344086579   -0.28735253841404
C          -3.05204430100092  -10.10097787170866   -0.61801000764170
C          -1.67468622855905  -10.32667538403631   -0.50437783418099
C          -0.81666908502138   -9.33824101051099   -0.07122684553323
C          -3.91866613503166  -11.15329742104409   -1.10014402550691
C          -5.27107213665828  -11.11517130956470   -1.30700955168477
C          -5.79695962463938  -12.30951173450072   -1.84746874986800
C          -4.80202637240954  -13.27954234720353   -2.04696786602427
S          -3.24184028940859  -12.70405106005720   -1.55615243288866
C          -5.03940319929091  -14.54022473161659   -2.58909547825522
O          -3.94479317380359  -15.31441399181278   -2.68479950016937
C          -3.95878848841688  -16.64776566230396   -3.14700550276294
C          -6.37395387378855  -14.80387356293056   -2.97533706816277
C          -7.39401806085381  -13.81241009326942   -2.76525545577006
C          -7.14318143363626  -12.57800675223582   -2.19837658646058
O          -7.99849406126373  -11.56086818787387   -1.93366475734597
C          -9.38142909056503  -11.69791071746934   -2.16135650884261
S          -8.93382686481089  -14.39522562170698   -3.38048078326853
C          -8.21531871654494  -15.90189297763944   -3.92198416828961
C          -6.87892198228643  -15.95035193139662   -3.61437544358015
C          -9.04498260208310  -16.85696462492828   -4.55499996949708
C          -8.78836390528937  -18.08503835332971   -5.18328295047569
C          -7.48099596324375  -18.65787583182495   -5.47356053041232
O          -6.41014157828381  -18.08995194575055   -5.35074651586521
C          -7.53394684318066  -20.03697639518172   -6.00753476758883
C          -8.73256162939646  -20.68527536838485   -6.39983741355833
C          -8.49658260411690  -21.94521853913373   -6.89556620894260
S          -6.83255638586248  -22.36831416121829   -6.87899078800314
C          -6.43279665197304  -20.83583993752238   -6.20978349917835
C          -5.00253360827105  -20.52478680730400   -5.89464863857178
F          -4.49031353335608  -19.56358907569739   -6.66839407915148
F          -4.82254585548970  -20.15160255618354   -4.62132761691245
F          -4.22872444291330  -21.60801874730462   -6.08045159678560
C          -9.50158691385307  -22.92444193275048   -7.42223895453986
F         -10.38203022028965  -23.30943048832695   -6.49667439118919
F         -10.18436695175226  -22.44460892761781   -8.46445630965344
F          -8.88923660796796  -24.04248886832951   -7.85249943019492
C         -10.05546632368197  -20.05094613164058   -6.23499224796760
O         -11.09100685292569  -20.59295407330018   -6.55597940532585
C          -9.98357736941517  -18.72381315547104   -5.61849054353545
C         -11.13777441870123  -18.00211465224066   -5.35342971428592
S         -10.75191373473418  -16.50988781504255   -4.54828176128931
C         -12.46670128879786  -18.32841551658217   -5.72912338746787
C         -13.61110140021584  -17.99285073339166   -5.07894461121350
C         -14.92126896817462  -18.02352637714899   -5.79268394307735
O         -15.15001374418112  -18.49925920077687   -6.87465060868555
C         -15.85365785097153  -17.28228381088563   -4.90741031703450
C         -15.19101432334647  -16.93552516759373   -3.71517046167451
C         -15.84673475403418  -16.18624859596370   -2.75141498009113
C         -17.16913838987550  -15.80968827493865   -2.97145322981409
C         -17.82722814205100  -16.17548716984317   -4.15777629519734
C         -17.16255014252121  -16.91866026789967   -5.13871702213091
C         -19.18407491273054  -15.83047683491252   -4.38698691418267
N         -20.28156459791334  -15.63017763222676   -4.64345447416174
C         -17.90203718844986  -14.94588141785704   -1.98329304510525
O         -18.71027398098641  -14.13277604779786   -2.32691523594272
O         -17.59152514531155  -15.12531691049173   -0.69453164900059
C         -13.84489683028441  -17.50430326210208   -3.73663874348963
C         -13.08791764570857  -17.76616651929971   -2.62421367988173
C         -11.91201273676712  -18.54559481083522   -2.62866862117679
N         -10.97072429861491  -19.19978105117236   -2.57214268398921
C         -13.47333309333979  -17.36784220491942   -1.32811448227700
N         -13.77563857657384  -17.05271830687699   -0.26671211668737
H           3.26041978550786    1.49632616663463    2.55637783395033
H           5.15416244264938    1.95801854610555    1.07011344556042
H           4.73370056546263   -1.89107999944040   -0.78333715641816
H          -0.42605675750938   -2.57674155992086    2.68302270107024
H          -2.06176585341266   -3.88819245762693    1.52208686977345
H           1.38573215860389   -7.41203427403846    0.93235752010860
H           2.01480070983150   -5.18981764327886    1.76390069281797
H          -5.00661943018553   -6.74875002385324    1.26160201535042
H          -4.25353296053858   -5.25328154552605    1.81906953084922
H          -3.43361790693139   -8.07221314642460    2.67604005560696
H          -4.37996886612420   -6.93486626835663    3.63821044998657
H          -2.69676578258017   -6.57645086172238    3.25212586482907
H          -2.61220040743630   -5.57578282068348   -1.46878426569382
H          -3.59156990625518   -4.54016525226744   -0.43175955262094
H          -4.55090917740884   -7.01541301172306   -1.93841837938213
H          -4.93228307755179   -5.33475340205943   -2.29006113292804
H          -5.55738140252857   -6.07720483802883   -0.82331222592799
H          -4.63278128006841   -8.66806295067432   -0.33911128050589
H          -1.28492867133677  -11.30168995130406   -0.75770071450651
H           0.23995321126146   -9.53427912546279    0.02634666143708
H          -5.89862654720244  -10.26929635125867   -1.09930608230055
H          -2.93249794640404  -16.99311221943450   -3.02674749935872
H          -4.23412703939489  -16.71314484522444   -4.20224023917440
H          -4.61912460607175  -17.27659864463801   -2.54495312682503
H          -9.80294591744901  -12.53527902311860   -1.59961481411820
H          -9.60827638762063  -11.81652408244434   -3.22391322787966
H          -9.82250142012480  -10.76839993745252   -1.80361593207119
H          -6.29318945538741  -16.80609553221456   -3.87389073261811
H         -12.58610037840742  -18.86279093837571   -6.66730049378386
H         -15.32693469896531  -15.85779157889514   -1.86369651977249
H         -17.66133644238716  -17.19870637800307   -6.05403303930622
H         -16.94785706299041  -15.82880492460605   -0.53076604715463
