110
 SCF done       -199.531701435180          0.000617278679
C          -6.78210713497622   -0.49748093428825   -0.59842178772110
O          -7.32980947127668   -1.57520040263952   -0.57280123169016
C          -7.32386452361580    0.74804773075495   -1.18652801631629
C          -6.52480183321556    1.83973656415450   -0.80472839159979
C          -6.85902566974919    3.11631150357378   -1.23782300461107
C          -7.97735930942172    3.27873628846233   -2.04009163433259
C          -8.75492372475829    2.18524945434906   -2.40029246165275
C          -8.44509201575928    0.90072022914244   -1.97535106719258
Br        -10.27729831624939    2.45787770966664   -3.50235291546430
C          -5.42669567631513    1.35763271293607    0.02846299832123
C          -4.48158290628599    2.14530741860340    0.62821874108209
C          -4.44272087968932    3.55315661253657    0.52868820021502
N          -4.35316399218362    4.69658513972519    0.48805759730053
C          -3.42767434255253    1.68407932079472    1.44619402734844
N          -2.54605854123498    1.39324907490524    2.12204179679449
C          -5.51886822389204   -0.09373216974610    0.07468282730713
C          -4.65647129475311   -0.94626948611899    0.68436549858588
C          -4.64233805413629   -2.37308424328964    0.52945950418757
C          -4.28325656309920   -3.20406806234927    1.58019329458226
C          -4.27970837156632   -4.59307475353084    1.47149088827902
C          -4.58257198004411   -5.25998357122906    0.29476133826383
C          -4.88313992005924   -4.44263481431934   -0.82474056187142
C          -4.91647643148287   -3.00815288075673   -0.70836341732037
N          -5.16068629143934   -2.41660942811896   -1.87528044572686
S          -5.38720429459198   -3.54746870339558   -2.99126963084286
N          -5.15149768597121   -4.83795217243179   -2.07049998656711
C          -4.54409754481407   -6.71606855331743    0.21287862020168
C          -4.87819942487659   -7.49122654864179    1.33212210489954
C          -4.77646978138346   -8.85948355534084    1.26290032007910
C          -4.33530132126019   -9.48293450087562    0.08463964211835
C          -4.02215407589659   -8.72580331201009   -1.03447277213119
C          -4.13190746587764   -7.35134954540297   -0.96312828227587
C          -4.30667481966911  -10.91266776085308    0.30590113028817
C          -4.73349511773367  -11.17521407165182    1.62013521212952
C          -5.02391884600102   -9.88319074394279    2.35172044173136
C          -3.99064216097475   -9.60566376175287    3.46976749857995
C          -3.93010424090737  -10.62709909954175    4.59771541240817
C          -6.46383685062073   -9.82835118742155    2.88316103817247
C          -7.49763725305925   -9.96321744233422    1.77102700378760
C          -4.84249276964756  -12.46997197467680    2.06849334346254
C          -4.46810548762008  -13.52778605633507    1.22585224563559
C          -4.02541346870694  -13.24664561789399   -0.07143860660828
C          -3.95553913506905  -11.95207404720884   -0.54252301774472
C          -4.50078037949238  -14.89380181156199    1.69997282152502
C          -5.03703792686435  -15.38166012530325    2.85808014801153
C          -4.83285864266226  -16.76921715425215    3.04050827031033
C          -4.11616205793010  -17.33990861372232    1.97277885425384
S          -3.72977106067218  -16.16033242562259    0.76078370938477
C          -3.76649231585436  -18.68102432491015    1.91059451344645
O          -3.10173251006602  -19.05829374183394    0.79089415886869
C          -3.14936855048693  -20.38563556991314    0.31644998619605
C          -4.11315924636277  -19.46863477757438    3.02918642528290
C          -4.87601114990593  -18.89656593979265    4.10279356338239
C          -5.26338574789882  -17.56789458150895    4.12339428902794
O          -5.99028886093615  -16.90161978349044    5.05560313744686
C          -6.61486072364674  -17.59162456820302    6.11316169398157
S          -5.15056273299349  -20.09324044435686    5.35382235166938
C          -4.25489387028511  -21.31020853777385    4.47390299582687
C          -3.77925227191044  -20.81269102521444    3.28396478391067
C          -4.02952582917985  -22.56211808572093    5.08356804174114
C          -3.53658365194161  -23.72334176342017    4.56005182279789
C          -2.96677122602617  -24.73110775377288    5.49340185735544
O          -3.07911963823866  -24.75678052675886    6.69617158503673
C          -2.19203061848576  -25.65688425977496    4.63494794723595
C          -2.38239060038848  -25.31184073439319    3.28461879740297
C          -3.33047054499289  -24.20037010015269    3.21332452524613
C          -4.05763424553622  -23.86168324361366    2.09932213493331
C          -3.83041163347190  -24.39219628285937    0.81442430684202
N          -3.66435679598924  -24.75843659274402   -0.26110389443634
C          -5.15942706941915  -22.98533632024362    2.12756090789684
N          -6.07467417557578  -22.29239710794735    2.10443676070408
C          -1.72702086383558  -26.02569098369347    2.29285458244202
C          -0.89761298379227  -27.07362622322751    2.66376973010870
C          -0.73361279608279  -27.40612477647149    4.00201736763743
C          -1.37700009198574  -26.70312223290934    5.01272943451057
Br          0.40442934942173  -28.85651612345282    4.46001759293658
H          -6.27254836243051    3.97897155964426   -0.96800991680147
H          -8.24905197806786    4.26363094848330   -2.38776727827542
H          -9.04721504646316    0.04827347192472   -2.24903364941650
H          -3.89726652250755   -0.54722680126522    1.34520145124124
H          -4.03372288992151   -2.75536441332412    2.53092737595239
H          -3.99849773264840   -5.16987882708780    2.33954806976303
H          -5.24062831404481   -7.01182882283133    2.22933292914976
H          -3.68959286443613   -9.19964303502551   -1.94552422660821
H          -3.88155145899395   -6.74812931197925   -1.82060335264134
H          -4.22004271754642   -8.62475340977253    3.89241011328739
H          -3.00366009836578   -9.54092794463389    3.00386848946790
H          -4.89828793357222  -10.74934150806237    5.07596542245704
H          -3.22403518289779  -10.28552311535832    5.35178956826690
H          -3.58928969683524  -11.59149347244685    4.23179094658537
H          -6.61173241850073   -8.88009243593545    3.40432318489034
H          -6.60981350434219  -10.63425368008117    3.60350405461424
H          -7.39668672056214   -9.15474579569897    1.05044977595873
H          -8.50191392961818   -9.92979149920267    2.18710535865935
H          -7.37364215812036  -10.90765163009112    1.24556289264092
H          -5.20569546771595  -12.68273786769387    3.06038598112384
H          -3.74327624471022  -14.06817407727815   -0.71359753707646
H          -3.62950867734900  -11.75381901305149   -1.55212413411016
H          -5.57115345603517  -14.79268731609757    3.57962859688862
H          -4.10151105026174  -20.86680431228952    0.55010512142129
H          -2.31779508765131  -20.97768373679307    0.71168999700711
H          -3.03819270886066  -20.31648617265175   -0.76618786952600
H          -7.26239889838846  -18.39182154709241    5.74677857385135
H          -7.22188970347344  -16.84361259043874    6.62191437110617
H          -5.88693258585613  -18.00134902755158    6.81810645084226
H          -3.12542914789799  -21.39124328624565    2.65964551590132
H          -4.19290414006119  -22.59236139476658    6.15712408018527
H          -1.83898055546027  -25.77939168845828    1.24934992668515
H          -0.37507832482832  -27.63761510619858    1.90650820690744
H          -1.25095574549776  -26.95806696247401    6.05347281241046
