158
 SCF done       -300.351450426215          0.000712171413
C           3.05377677007409    3.05015187547641   -2.23499031352259
C           4.37489874145847    3.79862950524511   -2.09688446426191
C           5.14088418189562    3.72721237368408   -0.94135339259389
C           6.35747921254522    4.38286826235683   -0.87661337132465
C           6.81407693063208    5.11835021321127   -1.95626984168835
C           6.04958291162305    5.19586139200272   -3.10750508647820
C           4.83797325858500    4.53301926069466   -3.18100716178583
C           2.46407797432353    2.62535973260522   -0.89890738587004
C           2.18705424673327    3.62783684066446    0.02453619399112
C           1.60051737861959    3.31409204982733    1.23570414277983
C           1.28212147434693    1.99883034785285    1.53305104813524
C           1.53841945445878    1.00369299241095    0.60748494940188
C           2.11915549416016    1.31352703811867   -0.61151860357499
C           3.20526902119854    1.92976359222733   -3.23886870765855
C           2.32025825379512    2.16401054147714   -4.26434790279464
C           1.63041778973717    3.40141138074654   -3.97885274802951
C           0.66632662872946    4.02718752316895   -4.72240111694225
C           0.17441256485925    3.51188764118622   -5.93505239893545
N          -0.25858323414186    3.13640522877165   -6.92876081219974
C           0.11366010117332    5.25162025298589   -4.29428649514217
N          -0.33628598877033    6.24930841353754   -3.95222412110360
O           2.07847106326617    3.92551510944151   -2.83260108219612
C           2.09853789315778    1.37373002263833   -5.40123690590728
N           1.93702669990983    0.69817327797078   -6.31477680006243
C           4.15199116573482    0.88331823219984   -3.11896063391658
C           4.37095146788220   -0.13751531383882   -4.01096143476133
C           5.40274632318025   -1.01668166499891   -3.62935119634015
C           5.86612003038070   -2.16067375517918   -4.31917867393836
C           5.22697396059682   -2.64397082034738   -5.52290285322834
C           5.81391495871339   -3.19666982497269   -6.62786607138589
C           4.87562565686488   -3.57646037688068   -7.60930870577900
C           3.57296412250799   -3.34054566917478   -7.27017343371654
S           3.49112577227535   -2.62577614353245   -5.70065793414817
C           2.34136542783292   -3.59097110375688   -8.05708284215840
Cl          5.35025737381010   -4.27867789821736   -9.10722384440360
C           6.97106682539294   -2.79872042783162   -3.76827389305521
C           7.59878224630355   -2.38308401799451   -2.56549294340598
C           7.08820313608939   -1.28599418259426   -1.84051309557032
C           6.01328777954880   -0.61636594767468   -2.41306462374083
S           5.24112550709263    0.78903319617659   -1.74536388360303
C           7.65065623264549   -0.89456950780593   -0.56490724084837
C           8.07514750327667   -1.70344578949005    0.45047751053919
C           8.56423680107382   -0.97837202812861    1.55864780591235
C           8.52651752947520    0.37734937412996    1.40526838262931
S           7.85899794383186    0.78401848433694   -0.14045848554307
C           8.95651322724857    1.43292319741374    2.35603172244399
Cl          9.15452346870863   -1.75749747117365    2.97606298534909
C           8.72792944574660   -3.17560396792128   -2.25603405538311
C           8.94624145548240   -4.19080099895154   -3.14662804861880
S           7.75485765805903   -4.20704667558319   -4.42844766912683
C           9.99992278741015   -5.14782967169435   -3.12653317636215
C          11.08536722702835   -5.18020561044451   -2.27193426561974
C          11.93168072497137   -6.25543040949780   -2.54546357401088
C          11.47986648790393   -7.05038225288690   -3.61191918366200
S          10.02289308794070   -6.46904532956987   -4.28178611622511
C          12.40591880976941   -8.10884244641000   -3.81050973974498
C          13.44554946027379   -7.97283237556432   -2.87607030726494
C          13.18254410426908   -6.80586841089205   -2.04902088189924
C          13.94983857835693   -6.32752661281435   -1.02765118155403
C          13.58477823490443   -5.18017006682934   -0.29247626877538
N          13.28632951212417   -4.24740633340989    0.30398315908004
C          15.15801622399666   -6.94761644764185   -0.64564653060262
N          16.14074612593109   -7.45185867475093   -0.33701143726498
C          14.41725933454961   -8.96658198082000   -2.99438448822269
C          14.12031922941018   -9.86003690142037   -4.00633605981324
S          12.62013608717540   -9.46416272712308   -4.82497411455333
C          14.89161265792221  -10.98640423491876   -4.40811056592430
C          16.12062935405580  -11.35368472501922   -3.93348752912112
C          16.64359089228221  -12.51575231096225   -4.54502679701012
C          17.87473479641003  -13.15380151532227   -4.28434468171337
C          18.84774588904895  -12.63679491803988   -3.34641601209470
C          19.67512329319998  -13.35154463760854   -2.52560872138817
C          20.54403420025271  -12.53235652808570   -1.77465464128445
C          20.40974253025335  -11.19501859829979   -2.01644512352819
S          19.17079856777447  -10.92958822149629   -3.19290692443928
C          21.15402368650676  -10.05967655110217   -1.41855764131330
Cl         21.67265234141232  -13.18187708653147   -0.65065733160391
C          18.13055900195486  -14.31805236074123   -5.00582072746422
C          17.22045649505749  -14.86176547710428   -5.94499915546541
C          15.98453396607023  -14.22868273399230   -6.19979911404123
C          15.74402065860487  -13.05374153199998   -5.50319789661038
S          14.30522190191403  -12.08324169918553   -5.63874974294904
C          15.04632798801162  -14.79466841864289   -7.14706450401569
C          14.70654647794206  -16.10769045621748   -7.31195740229592
C          13.77283024810331  -16.30121856085472   -8.35197116912077
C          13.39529938847221  -15.15683058516506   -8.99253929716890
S          14.19999632206830  -13.79291799197895   -8.29368440834452
C          12.44649908231606  -14.99275939060444  -10.12188366198343
Cl         13.16771024868061  -17.85912651145253   -8.75946153610546
C          17.74368435744384  -15.99915855074968   -6.59291342688249
C          19.01187146305092  -16.32902871424159   -6.18948326457989
S          19.60973236157900  -15.23568575686217   -4.95575881083800
C          19.81633506587728  -17.38851306406185   -6.68822035500493
C          21.18406830846365  -17.45906658758073   -6.73091115873248
C          21.54185617865581  -18.66636628534987   -7.43986748076810
C          22.78838526069488  -19.13988162022526   -7.74246926994006
C          23.97441381749990  -18.47375104116918   -7.38206503769412
N          24.97124857324750  -17.97443212970370   -7.11352569308595
C          22.93950779110399  -20.35708801332090   -8.43846061915212
N          23.06251718875523  -21.35367243877845   -8.99195980165245
O          20.43376541023170  -19.31821762042341   -7.82166425887883
C          19.27144258753917  -18.67323979500961   -7.28618421649536
C          18.28692234799853  -18.47717725501222   -8.42703447689537
C          17.16552515365791  -19.28207208659268   -8.56670361392200
C          16.29681924694644  -19.08128057558557   -9.62585145314039
C          16.54212209744252  -18.08223661602909  -10.55125263278222
C          17.67551114359785  -17.29560313097195  -10.43060045164599
C          18.54945907251205  -17.49637937425689   -9.37814801079904
C          18.70742027364567  -19.52424707302780   -6.14632369384722
C          19.28511878198092  -20.74904174931775   -5.84109254391300
C          18.78619571759616  -21.51528272044858   -4.80146687389166
C          17.70998338689603  -21.06718597235629   -4.05739567747950
C          17.12688763585939  -19.84913323605200   -4.36374259290158
C          17.62124130101327  -19.08064310837928   -5.40162750874122
C          22.09223053182303  -16.50153892337875   -6.25164303620812
N          22.80441390008606  -15.69174963996792   -5.86253712779399
H           4.79356435099118    3.15683099625701   -0.09366972796841
H           6.94863701362491    4.31549670000994    0.02382587698714
H           7.76288398914987    5.63019083163153   -1.90166239802929
H           6.39645719075017    5.76839142646592   -3.95434377303476
H           4.24972938212405    4.59637384494040   -4.08557595483990
H           2.42758974569431    4.65154558505799   -0.21937620876877
H           1.38851049171546    4.09842094820939    1.94633231226234
H           0.82562081586248    1.75269588175603    2.47987516219954
H           1.27888670732512   -0.02131702819133    0.82559358059577
H           2.29261205076517    0.52507112840370   -1.32888396684101
H           3.81617496681361   -0.23243275604519   -4.92420997059700
H           6.87444924939815   -3.29126597834920   -6.76890563933652
H           2.59731702601296   -4.05967281791900   -9.00387577986392
H           1.82280224872986   -2.65257320539185   -8.25261898683515
H           1.65957021541545   -4.24110319678131   -7.50996092974799
H           8.00180083306440   -2.77512335822610    0.43805740917875
H           9.44462638447402    0.97659934812274    3.21345201862427
H           8.09815919626844    2.00710951275412    2.70496966200729
H           9.65001476308212    2.12213891317068    1.87660983032229
H           9.36847514466212   -2.98460780158578   -1.41615598905609
H          11.24995456794449   -4.45133690778735   -1.50050571780187
H          15.29384605057075   -9.04408056109381   -2.37907822087747
H          16.63188747352922  -10.80721894834526   -3.16486781930485
H          19.64846256284896  -14.42001003376759   -2.41968211125292
H          21.81089136213262  -10.42655698297169   -0.63404011748704
H          20.46528443751884   -9.32919682948597   -0.99619348130885
H          21.75624922368336   -9.55535175460491   -2.17427450532185
H          15.06110815317663  -16.90952470835981   -6.69121990162931
H          12.95095313714588  -14.56730750359600  -10.98886038405925
H          11.63452732335805  -14.32140947687372   -9.84513852211120
H          12.02971013838681  -15.95910992548758  -10.39445148054689
H          17.22970114176603  -16.50904758845771   -7.38587409917558
H          16.96844524593049  -20.06476422020721   -7.85020203242250
H          15.42610605761092  -19.71084959930502   -9.72560636791292
H          15.85662549093982  -17.92221296904784  -11.36955695986376
H          17.88277975038950  -16.52429740752785  -11.15687208501774
H          19.43291737750274  -16.87965198816681   -9.28765304657128
H          20.11596769112152  -21.11655993180051   -6.42374852936463
H          19.24446636355883  -22.46656214067529   -4.57795277215074
H          17.32393293918408  -21.66397866668207   -3.24513002459745
H          16.28246276164566  -19.49208573056833   -3.79334818503263
H          17.15625217902752  -18.13465449010610   -5.63087278994108
