122
 SCF done       -238.134425860731          0.000514020252
C           2.18621713041494    0.53269771002341    2.38027597597807
C           2.27611103270964    1.52011555867327    1.23141404339041
C           2.85803770312740    2.76674756237438    1.41441479001471
C           2.90125017102849    3.67039536342680    0.36734483401793
C           2.35213773888575    3.34367352943149   -0.86023877626233
C           1.73948705976407    2.11482649253495   -1.03505170075371
C           1.69406023149056    1.20766865182035    0.00802301193756
C           3.32482441779322    0.65579002309428    3.39405034347163
C           3.05536635496243    0.59503468292913    4.75439053578700
C           4.08827029702358    0.65194470672674    5.67419792708739
C           5.39857367000269    0.75903120515037    5.24483741738600
C           5.67095147753302    0.82107125300619    3.88856847148041
C           4.64207116905909    0.76879746080761    2.96589974471753
C           2.13142337595813   -0.93396019219865    1.99081920248995
C           0.99257078045073   -1.46556727440424    2.54331131026640
C           0.26073101417565   -0.39039255768751    3.17044971435797
C          -0.94246672362994   -0.45014164857655    3.81885487704035
C          -1.67248546392279   -1.64414659619561    3.96521517042117
N          -2.30236775275094   -2.59108710445074    4.11283095315666
C          -1.50882482192017    0.70671191384863    4.39282610464256
N          -1.96477980055133    1.64313259512284    4.87210977429697
O           0.93037403594600    0.76283035810628    3.03203640404540
C           0.57230686936974   -2.80115597416875    2.45942211634227
N           0.27383230657600   -3.90312302884458    2.34923962971586
C           3.13545865469317   -1.59290674218978    1.24199148216079
C           4.00711868178407   -1.02445930553586    0.32618868054750
C           4.85855432021686   -1.96625801711432   -0.23871119302001
C           4.64855296264422   -3.26670112730068    0.26189846173788
S           3.38295913363287   -3.33297536978963    1.39862459864013
C           5.57003719335053   -4.14028668405583   -0.36978146678332
C           6.34774091290994   -3.39704589644476   -1.27526660349442
C           5.92725638330581   -2.00516515234827   -1.22080971079505
C           6.42856356663486   -0.95378008813936   -1.93073085066025
C           7.47168131674831   -1.11151490660307   -2.86741203792747
N           8.31988283596362   -1.24547857640348   -3.62692372241986
C           5.93169024241747    0.35633735226459   -1.76063256553544
N           5.52385197789742    1.41723212497213   -1.60892644585661
C           7.28998753326623   -4.17304562403051   -1.94737248574314
C           7.24231272239432   -5.49851067859044   -1.55124109731180
S           6.00700072186260   -5.79135290433837   -0.33787359151039
C           8.06243978772168   -6.56156115812416   -2.00690003158974
C           8.10922072565842   -7.85775723518607   -1.52638653006342
C           9.05423377360474   -8.62935100584708   -2.20089625206374
C           9.72243312199010   -7.91563953426385   -3.21112922171662
S           9.19810983829304   -6.29461511437175   -3.32223815067791
C          10.65794287869107   -8.77985986919310   -3.83136146837199
C          10.59215426369670  -10.03807178502798   -3.20708525913187
C           9.57789450713674   -9.98652658675887   -2.16429676757863
C           9.19758214398657  -10.99321839257003   -1.32812762010805
C           9.77874799806082  -12.27836299582833   -1.38763603759644
N          10.24529331373468  -13.32387297100762   -1.43909881567360
C           8.19693470400331  -10.81136022713324   -0.34923485040941
N           7.38577992933481  -10.65660788935095    0.44569576325686
C          11.49060281963912  -10.95978088126082   -3.74251026009322
C          12.23297319998650  -10.41542147178578   -4.77717059056919
S          11.81298065974455   -8.73731614957505   -5.08623932562516
C          13.23690821144080  -11.05590660260481   -5.54948608598388
C          13.80220352069320  -12.30114640338495   -5.32636515395723
C          14.76814186009251  -12.61164229276897   -6.28191770689762
C          14.93181267311917  -11.60139494671191   -7.24562615882434
S          13.90594508282571  -10.26407340114989   -6.96590482611735
C          15.92337317266098  -12.00930853287342   -8.16736158074486
C          16.40194038677985  -13.27900259777280   -7.78186568076552
C          15.68331444475889  -13.70273686027046   -6.58986525199728
C          15.82082652279867  -14.87436898477292   -5.90895150528037
C          16.71230837531007  -15.89307588528110   -6.31353684044362
N          17.41594336033323  -16.73706251773003   -6.63729430994827
C          15.06278698072572  -15.15633714488534   -4.75124959626230
N          14.44753612370688  -15.37895885456809   -3.81031057210211
C          17.40376843801699  -13.75523059277415   -8.61877897097701
C          17.68414724278678  -12.87177041410483   -9.65412660643571
S          16.68083318467566  -11.42297197549012   -9.57335717681310
C          18.63135593158592  -13.03046889128568  -10.68939141495405
C          19.60778892879389  -13.99139656829453  -10.81418390957205
C          20.27472163966068  -13.78444978927901  -12.07782534526763
C          21.31400467378352  -14.49230361374309  -12.61847718335399
C          21.92171073810521  -15.58602669218321  -11.97508565925379
N          22.45228819495152  -16.48427895712186  -11.49884513043013
C          21.83024998794375  -14.14610932510190  -13.88428784090087
N          22.24614970881538  -13.86758340478100  -14.91582107604180
O          19.72269193872673  -12.75151509329369  -12.72816170678766
C          18.67763615544605  -12.16566863373870  -11.93221538447508
C          19.09841369692192  -10.72388169445068  -11.70141958652269
C          19.12272936295165   -9.86716029740059  -12.79636806210248
C          19.56017770138548   -8.56442584817566  -12.64910101404602
C          19.98526864552491   -8.10916790161494  -11.41159918790264
C          19.99106299008262   -8.96854729606998  -10.32787947875764
C          19.55989450320310  -10.27688643366997  -10.47162255778928
C          17.34941896994709  -12.31042063800254  -12.66819677832245
C          17.06423620115435  -13.51856652702299  -13.29225022103819
C          15.85529221010668  -13.70303121270684  -13.93791794597105
C          14.91533582532801  -12.68703279001078  -13.95439291639839
C          15.19306403077822  -11.48508704460852  -13.32708746533676
C          16.40472137427000  -11.29338550281773  -12.68581441436300
C          19.95028116581631  -14.98242187428752   -9.88255384374651
N          20.21412228974678  -15.76561429433661   -9.08751822783994
H           3.27746189753333    3.02899371579873    2.37372615926166
H           3.36546286396114    4.63339397718585    0.51462273239420
H           2.39450843122394    4.04710986111204   -1.67729903298261
H           1.29415428685813    1.85848838046734   -1.98439143094844
H           1.21157135879858    0.24999687316547   -0.13367109797241
H           2.03806547229633    0.52288376496643    5.10785540006368
H           3.86186258694904    0.61062062684244    6.72863347957934
H           6.20387945829490    0.79863722168985    5.96233228225467
H           6.68943332823624    0.91388572441117    3.54258697678150
H           4.87032805335374    0.83370708608997    1.91381407627216
H           3.97500431513036    0.01377581193260    0.05213963397400
H           7.98484989348345   -3.80790380757341   -2.68231329549929
H           7.48585437286802   -8.20278074169847   -0.72107386104952
H          11.59941121371430  -11.97563775505294   -3.41083097192227
H          13.52603584334553  -12.93310928120053   -4.50305527810971
H          17.90813435468588  -14.69727547124183   -8.50234324901748
H          18.80596885932159  -10.23168948007141  -13.76173961093910
H          19.57422111188139   -7.90580104186812  -13.50404804234280
H          20.32476251897763   -7.09102649070525  -11.29629705947353
H          20.34192477887221   -8.62782119786563   -9.36546336907639
H          19.59770196672395  -10.94227121700397   -9.62091924334083
H          17.79038623313323  -14.31861183626649  -13.28605395443287
H          15.64940053747114  -14.64380338340076  -14.42513141817455
H          13.97059734142189  -12.83146437296455  -14.45605680933448
H          14.46657261054043  -10.68660630606614  -13.33731792330610
H          16.61358476655327  -10.34761215696882  -12.20878862646880
