122
 SCF done       -214.057161306472          0.000855461690
C          -1.93581638942566   -4.32920049094071   -6.27017781044424
C          -1.35959945912594   -5.33967141495287   -5.29216613565452
C          -0.70311911633445   -6.47327399587184   -5.75422925942342
C          -0.13924494023903   -7.36287668443015   -4.85748361149978
C          -0.22669169601950   -7.13008014862056   -3.49561310957499
C          -0.87989759446860   -6.00136782427452   -3.03257267602226
C          -1.43908435967739   -5.10572035871995   -3.92639769273892
C          -2.43950526056648   -4.99383956652121   -7.54307427137236
C          -3.36282460732126   -6.02477371039103   -7.40940834194428
C          -3.89657475629754   -6.63003387125102   -8.53121992680865
C          -3.51557026665124   -6.20935379299309   -9.79507670239671
C          -2.60866758149129   -5.17378127172437   -9.93046197389796
C          -2.07549235935331   -4.55979000396041   -8.80892217132530
C          -0.92386686190866   -3.21618045639294   -6.49868670293051
C          -1.56526431664275   -2.02104392450721   -6.15777353127412
C          -2.86278753272613   -2.35111299189921   -5.65156562294180
C          -3.82833011496704   -1.50715270679928   -5.14857639721018
C          -3.65918712851701   -0.11954646991148   -5.02377000583356
N          -3.57633715570328    1.01552513240308   -4.87152161414542
C          -5.05007499913025   -2.02722178847557   -4.68382847136044
N          -6.04584534515572   -2.44985491341289   -4.30000346157875
O          -3.07100201818865   -3.67516146323872   -5.68343038627210
C          -1.16783753101320   -0.70773233355378   -6.41248716533483
N          -0.87597976728538    0.36850132067394   -6.69240044966463
C           0.34976891840278   -3.52836964028482   -6.94523934163998
C           1.50836609779573   -2.75694295434456   -6.99957207594408
C           2.72246854297422   -3.20095425771104   -7.55431720999510
C           3.75248898923090   -2.29795839286158   -7.44905616781719
C           3.38698451258323   -1.11811668067372   -6.79427755940105
S           1.71472326207534   -1.16984666471593   -6.31214776247415
C           4.16932545242883    0.01954024928234   -6.54282609687547
C           5.50897045599555    0.24021754835248   -6.86287033390598
C           5.96070711981908    1.49190854320693   -6.49449108913272
C           4.99163092315208    2.28209287340791   -5.87826442288676
S           3.48415513990083    1.41457504426094   -5.75912720783779
C           5.14146993675871    3.60031898326751   -5.41232402534489
C           4.14350248871914    4.32194209805966   -4.82683211014019
C           4.25935849941878    5.64624913761994   -4.37022713297220
C           3.26122613026145    6.40374383200225   -3.76568639128810
C           3.65848899220433    7.68379048769962   -3.42578661994697
C           4.98031548305640    7.96060346355021   -3.75955435733259
S           5.72775288481493    6.57843794422868   -4.50851212664393
C           5.68119237789660    9.16700635357047   -3.55857472890592
C           5.20825787058243   10.33093442928425   -2.96114405029146
C           6.14307193927876   11.34882846240754   -2.92238610858122
C           7.36808594997124   11.01032357523721   -3.48860251278248
S           7.33141730859794    9.36748217065744   -4.07497941270339
C           8.49378087837585   11.84398300471926   -3.60211662350796
C           9.67878180805508   11.49805990433314   -4.18168362535706
C          10.77953357846147   12.36546029511664   -4.29630090332608
C          12.00596237129326   12.09688201241883   -4.90225992528671
C          12.88633087732987   13.16024782162967   -4.87700354668800
C          12.36906622971582   14.29152559046067   -4.24561966590128
S          10.75090783653743   13.99455211622171   -3.67654715587417
C          12.97424057917888   15.54353537874228   -4.05951851817365
C          14.23026587977300   15.97788218938698   -4.49491884570192
C          14.49879001676594   17.28369329322917   -4.16389824052404
C          13.45634052425461   17.92734683748081   -3.47219256864577
S          12.13449200251224   16.81827308073461   -3.22269168795269
C          13.52690390658253   19.22377500763630   -2.97040528917870
C          12.55209806357667   19.99311201938501   -2.35120911572811
C          11.15867771206010   19.91741180737678   -2.31135944132816
C          10.68306177879770   21.01316746350647   -1.52089792573758
C           9.38692270104704   21.31991462641813   -1.17234939743945
C           8.28427728385206   20.52057895250583   -1.51259001099624
N           7.34643590802942   19.89716917250693   -1.73734665919254
C           9.11146008206014   22.46858884579911   -0.40813021303628
N           8.88285409690112   23.40990434547428    0.20773521717339
O          11.69833709681380   21.78827756056785   -1.11381594024483
C          12.94249169772763   21.23714822944030   -1.56957931362540
C          13.63546707361323   22.21928300422693   -2.50173443447426
C          12.88059360663089   23.05524941974452   -3.31283556178760
C          13.50521779740841   23.92202527575006   -4.19161614328968
C          14.88624532230735   23.95086238369330   -4.27651210597728
C          15.64185412795524   23.11261279685400   -3.47457941173412
C          15.02153704084413   22.24943389843832   -2.58907932340494
C          13.77235116863794   20.97223685170108   -0.32244976089975
C          14.16775853921929   19.70373909736210    0.07266695100569
C          14.89315220026705   19.53801665041464    1.24132098592502
C          15.21420276331874   20.63102566578454    2.02570819557710
C          14.80432932950080   21.89758541981593    1.64185633221762
C          14.08635419652546   22.06849499696024    0.47375674725797
C          10.30693480236952   19.10029230660088   -3.05747120289317
N           9.61259203443765   18.47314231001662   -3.72524707438531
H          -0.64612493473218   -6.67062865430337   -6.81517915591640
H           0.36564425552987   -8.24351875401092   -5.22593390068260
H           0.21016686879946   -7.82838230329697   -2.79761086515073
H          -0.95558702684623   -5.81396585538721   -1.97204444333437
H          -1.95222195811881   -4.23021153916335   -3.55703725324632
H          -3.66179229264407   -6.34086936850810   -6.42132323143931
H          -4.61354178140751   -7.42914228879110   -8.41840994936728
H          -3.93121529727274   -6.68257038101803  -10.67203543237998
H          -2.31656831791867   -4.83233749335850  -10.91239575274972
H          -1.37869363116412   -3.74291752717577   -8.93011326925703
H           0.48652284788639   -4.55522162221365   -7.26366059642003
H           2.80838322188024   -4.16314109424723   -8.02739715180313
H           4.74290714948779   -2.46604001108658   -7.83145091845304
H           6.11706935248736   -0.49926787394966   -7.35137371944439
H           6.96294527463891    1.84397526417446   -6.66361188505458
H           6.11653368072083    4.05300027426989   -5.54304764104360
H           3.17235236338282    3.86055168446670   -4.69680622960168
H           2.27530079536362    6.01244122603294   -3.58911007612766
H           3.01574790305380    8.40404264851867   -2.95388000902397
H           4.21099924805381   10.41937446082208   -2.57099601891840
H           5.95790448086465   12.32078694437858   -2.50127175705325
H           8.38354289067100   12.84238543913716   -3.19699833996953
H           9.79812817665825   10.50404596502323   -4.59432099815265
H          12.22618862817608   11.14368368214354   -5.34940507787386
H          13.87427794632042   13.13381644677603   -5.29955900003617
H          14.90578308124053   15.34259959573211   -5.03852385808146
H          15.41001009314671   17.79714508105847   -4.41492031321282
H          14.50682606394370   19.68251995420563   -3.03581082983353
H          11.80249772671879   23.04197018902759   -3.25053886945613
H          12.90870086066053   24.57400848907351   -4.81166451402949
H          15.37292999481065   24.62644779601894   -4.96371635429203
H          16.71998470781072   23.13225891899406   -3.53332149533045
H          15.61715923314754   21.60934773343383   -1.95377267589971
H          13.91666890724929   18.83898600204352   -0.52410261668821
H          15.20076188597531   18.54659241157772    1.53914738267017
H          15.77674596827516   20.49628579905234    2.93739115821875
H          15.04256706169077   22.75414161669068    2.25410618347762
H          13.75690354145297   23.05104463918173    0.17118101375871
