124
 SCF done       -221.744817856189          0.000353840693
C          13.03659411731449   -9.65165480169040    4.00682482574408
C          14.23508682765216  -10.28512072958508    4.32850076227145
C          15.40637332217301  -10.18632139692701    3.41617057248414
O          16.41413730389480  -10.83136523802827    3.53536294222132
O          15.22372805469386   -9.29650419398257    2.43581584232550
C          14.35934840401983  -11.03858836145572    5.50808660053589
C          15.56652663091391  -11.69113506897295    5.86608421421119
N          16.48227360170885  -12.24633312047634    6.27300553115276
C          13.27896612907079  -11.15003990004202    6.38950212265635
C          12.10141849541030  -10.51289179242818    6.06409275971858
C          11.96461927765940   -9.77060195326723    4.87484935607574
C          10.59896417157466   -9.25475718360162    4.79499755563236
C           9.96729677274637   -8.86589135372024    3.64490826447159
C          10.61313993718256   -8.74356490639816    2.39675730203169
N          11.09785765698394   -8.61256662616392    1.36497804016982
C           8.57859243973567   -8.62855315610261    3.55359697009995
N           7.45051008563299   -8.48620812285296    3.40001461451737
C           9.97630952794122   -9.49454326206047    6.08322339777322
C          10.83481637169526  -10.44936600165194    6.83391461771584
O          10.57068966854301  -11.01002435501830    7.86998225686007
C           8.88059530402287   -8.95794109871835    6.67732273787724
C           8.14719009519047   -7.78206191819024    6.29982491840666
C           8.78444226670833   -6.69637480598349    5.67909132160717
C           8.08805878392285   -5.55851071286843    5.33730186745034
C           6.72408106714863   -5.50728948731824    5.59543046382784
C           6.07569645674101   -6.58050661021099    6.23307698892859
C           6.77950206300361   -7.69665473405908    6.60657318855842
C           4.60332570862471   -6.28443750586359    6.40973196359173
C           3.75063184142221   -7.28974107069436    5.62823847562286
C           4.20897093298367   -6.27804117443398    7.88967076704911
C           4.50002553316667   -4.90152319579635    5.80562761619846
C           3.39313998789047   -4.09686188038864    5.69282824605232
C           3.51265572910310   -2.83562542035865    5.08920656376848
C           4.76792113921937   -2.42250768557649    4.62448408115774
C           5.88389581118480   -3.22438430038784    4.73987884495787
C           5.75182436885644   -4.47189805181261    5.33282079987398
C           2.35519303587624   -1.96526426070241    4.94442384223779
C           1.07172576645298   -2.42943180063575    4.88808160580455
C          -0.07698424488443   -1.63937367143404    4.74244061234662
C           0.02836617407937   -0.17193198142348    4.73340557436227
C           1.19668740356183    0.50379856122046    4.76191274791787
S           2.73304526615986   -0.25024840053681    4.82971368368860
C          -1.30798272147844    0.30656040852924    4.68570821633729
C          -2.18627441178312   -0.77534425392960    4.66329289930633
C          -3.53609031468656   -0.36278216610243    4.60922105066758
C          -3.64381957872641    0.99146746266976    4.59591909433297
S          -2.12364209465939    1.82005131749322    4.64327801220182
C          -1.42933317425322   -2.00186855470442    4.67442973592264
C          -2.05894411735036   -3.27919816244171    4.62852926941897
C          -1.50274207654475   -4.45425591802560    4.26081611325423
C          -2.15815530833936   -5.73740891782967    4.23112950942439
C          -3.47965453075939   -5.93523057832019    4.66182653934808
C          -4.07810232183506   -7.17501461629585    4.61378965459093
C          -3.35104628413210   -8.25618720945464    4.13071571060923
C          -2.02181648940829   -8.08181635337305    3.70557475624637
C          -1.43346600619596   -6.84384427460666    3.75358428068197
C          -1.43610028361470   -9.39424855719370    3.23504733571639
C          -1.00275394068574   -9.31910677364452    1.76822670902427
C          -0.26255827918950   -9.82050020408348    4.12372525697308
C          -2.60888937135631  -10.33052102809906    3.41947327914005
C          -2.69343258986140  -11.66848332734078    3.13602183996890
C          -3.87666116965982  -12.36421431377552    3.43782125868854
C          -4.97377030852328  -11.66137873075285    3.96251291541528
C          -4.90549144332088  -10.30913739426213    4.20959061705418
C          -3.71266967675710   -9.64132262075194    3.95682335701038
C          -3.95991835993712  -13.76579598900811    3.14788531689128
C          -4.72350958310332  -14.71170311127734    3.75553463481791
C          -5.00473819540043  -15.99522751498785    3.06221213571210
O          -4.45833125728229  -16.43000534865942    2.07654071667021
C          -6.13910859003818  -16.59443773782276    3.80845199213212
C          -6.42233427982041  -15.80610020613310    4.94052286436560
C          -7.47296912023271  -16.14618997799164    5.77507697801755
C          -8.22793017237468  -17.27895891598489    5.47739591354599
C          -7.92931831004089  -18.07069628149911    4.35570183141727
C          -6.87309300616571  -17.72091973160507    3.50780478465827
C          -8.68301895316402  -19.22443723737812    4.02176924153586
N          -9.22264976169238  -20.15964844501073    3.63880210047433
C          -9.35973264877978  -17.67943144347478    6.35551414468630
O          -9.94062777181951  -18.72950655271505    6.27706072146771
O          -9.67022196237056  -16.74274009096153    7.25734226025136
C          -5.45432259835176  -14.71196885930680    5.00696522109973
C          -5.13513031578256  -14.00897434348751    6.13783371431553
C          -4.01983876442053  -13.14963342943103    6.23811398883838
N          -3.09563627817310  -12.48937956601233    6.40082589993338
C          -5.82717717332600  -14.13096589841895    7.36041863814562
N          -6.36801691232941  -14.18267054941409    8.37133647830788
H          12.97468942244515   -9.07787209264609    3.09650236963877
H          16.00103560742532   -9.27323601493266    1.85569932680849
H          13.36550837669119  -11.72038169598501    7.30194940938765
H           8.56223315850946   -9.45393101268023    7.58932733575405
H           9.85038598804153   -6.74188018406924    5.50685576870629
H           8.59392644224756   -4.72489812542778    4.87450228569443
H           6.29476831436171   -8.52910378857877    7.09460927191187
H           3.87583882649749   -8.28856772367468    6.03834597053047
H           4.05286615900043   -7.30476553102661    4.58356483642992
H           2.69913705460506   -7.01851685627791    5.68885325061573
H           4.35374756241091   -7.26448059701274    8.32286575507481
H           3.16342195140330   -6.00154969539783    8.00046520359358
H           4.81754722039676   -5.56338295471208    8.43965862436021
H           2.44360413627634   -4.42167084746538    6.09019803061494
H           4.85967238824795   -1.45639987646213    4.15045171419733
H           6.83967752487116   -2.88525050534825    4.37093625185775
H           0.93506449041637   -3.49703889841399    4.96336328492136
H           1.24529872829735    1.58109351403070    4.73606866794044
H          -4.38457503089195   -1.02242902855087    4.58089710769321
H          -4.54033393839805    1.57908608799076    4.55899589562629
H          -3.11076724349190   -3.25555127048365    4.88239930939781
H          -0.47951394293827   -4.46443572585013    3.91171244873066
H          -4.04553728640357   -5.09905188425225    5.04169341838927
H          -5.09692181307212   -7.30355005122191    4.94768352094169
H          -0.41319101384471   -6.70468363486641    3.42357508801401
H          -0.20030641620437   -8.59528899545532    1.64925238297069
H          -1.83949836982435   -9.01617717777548    1.14218056743226
H          -0.64735253844949  -10.28883035258651    1.42883812839450
H           0.54422455148598   -9.09428385074996    4.05702919773020
H           0.11489802918087  -10.79014064953324    3.80925455740370
H          -0.58509135821504   -9.89488961983811    5.15972677121199
H          -1.85441996799087  -12.20925225209558    2.72376623947707
H          -5.90239237966091  -12.18829449836289    4.13025649867709
H          -5.76318114483223   -9.77891536560640    4.59497361293388
H          -3.39176760345466  -14.11598262920945    2.29127464598416
H          -7.72947096900586  -15.55757435728251    6.64079021221219
H          -6.63957999285685  -18.31793151135375    2.63924709674006
H         -10.39921368298125  -17.04854159980714    7.81969348100146
