98
 SCF done       -203.070438144771          0.000717101025
C          -3.47762529424385   -2.95592151029629   -1.33427966503764
C          -4.69649748234876   -3.35595727670200   -1.88592725925713
C          -5.75349285755763   -2.28483846231347   -1.95964531906338
O          -5.45125124553957   -1.12572917425630   -1.90522858658431
O          -7.03198821203354   -2.65297855513770   -2.06687869881571
C          -4.85155718914133   -4.66834127547249   -2.36626566112435
C          -6.05553245692418   -5.14800666530456   -2.93220798712292
N          -7.01248954270474   -5.59379041406353   -3.38355188986435
C          -3.78536682977734   -5.57715034683642   -2.31629832141135
C          -2.59339278652244   -5.15986852528820   -1.77209726357533
C          -2.43163991105220   -3.85784186618783   -1.26564970362126
C          -1.07556904222042   -3.74544596473952   -0.73793458408872
C          -0.61124376272969   -2.76000218642296    0.09384166347325
C          -1.35498396517192   -1.61950759841710    0.46251478579195
N          -1.91631732812421   -0.67646084173565    0.79586010517972
C           0.62527511629462   -2.84442652251299    0.77098263043077
N           1.58694821069977   -2.90747110687429    1.39508128512732
C          -0.35658860792126   -4.95469116071251   -1.08487967216876
C          -1.32542471679782   -5.92142289591935   -1.63033383603243
O          -1.16651358729392   -7.08143857787333   -1.95026210767947
C           1.01965440172997   -5.01348264564639   -1.07000119304524
C           1.91563393579947   -6.09300432694661   -1.15459064457867
C           1.58244251613699   -7.41882796490633   -1.02486742045489
C           2.54341438675865   -8.43754610736401   -0.92388737568236
C           3.87804122562536   -8.18360938973326   -0.75410474466614
C           4.35476167265183   -6.74765149243476   -0.70286957909227
C           3.38405427182220   -5.76058275436995   -1.38296125508249
N           3.67196500994080   -4.39075081902167   -1.02409335386708
C           4.18911332938892   -4.15471395553512    0.10012166988981
C           4.54160781882091   -5.23448790409366    1.04734108631367
N           4.61127902491042   -6.43954754889710    0.68995100270817
F           4.77268953650212   -4.91485893135180    2.30961723002302
F           4.47957174605378   -2.91005222110863    0.43336509197331
C           4.82722577198071   -9.19908570809684   -0.50213702612398
C           6.18129154712992   -9.06153100325811   -0.22190383543120
C           6.80762271192550  -10.28208045029403   -0.01109115855911
C           5.92567389167257  -11.38220312599872   -0.12527012785084
S           4.33384758198472  -10.89807399849838   -0.49571141688209
C           6.65180097724322  -12.56508932267305    0.10962677843442
C           7.99465125764526  -12.22843537160408    0.37404765167703
C           8.13420000123140  -10.78065484724764    0.29824621077738
C           9.27685758132309  -10.05207541632871    0.46180483770829
C          10.51525931497378  -10.65880696472763    0.75698268427019
N          11.52029745188631  -11.15659709637524    0.99585672753084
C           9.29165687888696   -8.64819011719749    0.32504409297186
N           9.30538851233767   -7.50888911097814    0.19632214973102
C           8.79616618831245  -13.33580508433574    0.62020104663758
C           8.08473719046353  -14.52627036048156    0.54942296289837
S           6.38618601289898  -14.25529493232906    0.16817926650588
C           8.58113100210765  -15.84213201928677    0.74300965587697
C           7.78049721077010  -16.96044324819962    0.65247689796381
C           8.21660039386875  -18.26690389795299    0.82866387822619
C           9.61817257057753  -18.56407772586996    1.13566699772514
C          10.57981302696255  -17.62584453440670    1.27314870637149
S          10.30274615332269  -15.94175891005017    1.10687001489976
C           9.68518224026242  -19.97977795721016    1.24042396230882
C           8.42275521548025  -20.54068090659698    1.01787356250681
C           8.46196153007731  -21.95115835698296    1.11567351852041
C           9.71078218979337  -22.40377014808612    1.39992877730965
S          10.89419703129764  -21.15287438502740    1.56258913773686
C           7.48607665753722  -19.47715414961467    0.75770370345342
C           6.10604942986165  -19.55648407490479    0.48080154434507
C           5.35677486865071  -20.68940744109475    0.40274078940955
C           3.97350449042453  -20.70945576463912    0.12061020312581
C           3.16521582908858  -21.83449005984429    0.03094854201592
C           1.84305901514189  -21.51324471380923   -0.26248549245815
C           1.63219937992343  -20.13249022081754   -0.39979395131265
S           3.06134174982772  -19.22876482508454   -0.16719395920452
C           0.26008153184047  -19.91364410021800   -0.69735634711148
C          -0.39175844573830  -21.15377954386685   -0.74698654634385
C           0.57295070454843  -22.20053209816658   -0.47638898559632
C           0.35187038831088  -23.54625083459441   -0.42821335894093
C          -0.92292634810987  -24.10749008254740   -0.65074761288779
N          -1.95761195365625  -24.56852319514966   -0.82790841718861
C           1.38572109707462  -24.46519607995507   -0.15359021187743
N           2.22726756794947  -25.21176815938351    0.06967863543560
C          -1.76338834805377  -21.02782534537350   -1.03957198621513
C          -2.11807188189028  -19.72356816002200   -1.20251688727305
S          -0.80173520707996  -18.61254975394263   -1.00627919345498
H          -3.38865462866626   -1.93730260213770   -0.98896715515660
H          -7.18775871119253   -3.60531893024506   -2.15508511608931
H          -3.89871986972322   -6.58007964978227   -2.69966221709129
H           1.51748097031765   -4.05270959286451   -0.98452408726068
H           0.54311559020925   -7.69861809571045   -0.96738649339419
H           2.19685690647721   -9.46112368404188   -0.90489012304052
H           5.32265431404229   -6.67407641084253   -1.21850614147417
H           3.54254599060262   -5.81501196250975   -2.47023372379946
H           6.67282581748766   -8.10951056974151   -0.15294016451559
H           9.84732751269762  -13.29857804397172    0.84282762239809
H           6.73660286772656  -16.78595566732725    0.42554192699618
H          11.60494131556749  -17.87194227413736    1.50046635249855
H           7.62798679128413  -22.61557685743428    0.98709336362337
H          10.02332705781766  -23.42157328354141    1.52852251206429
H           5.59852059311670  -18.61382100293950    0.31491040944201
H           5.80855689026875  -21.65626139051016    0.55996021632551
H           3.54110248635727  -22.83100710005726    0.17575184184752
H          -2.45148375414694  -21.84873206129045   -1.12573708785001
H          -3.08831748749614  -19.32997022913223   -1.43040878606673
