89
 SCF done       -173.526446475763          0.000667518723
C           1.32703867068634   -0.99147250441662    2.35825247616491
C           0.66394789604302   -0.73569383758974    3.55862206580528
C           0.62727180592093    0.70763807328100    3.98747147283148
O           1.47747734808257    1.47211990755996    3.62748581213914
O          -0.38129501887027    1.11504571315141    4.76086359784638
C           0.13633012168454   -1.79731718776657    4.31420148810978
C          -0.54806072478940   -1.60000943840707    5.53652022711200
N          -1.12302455453071   -1.48748932065134    6.52323055808555
C           0.29563547074245   -3.12101290581244    3.88620561538893
C           0.96011335840365   -3.34880760265830    2.70340001524883
C           1.45790073351992   -2.29637381957126    1.91675542796039
C           2.05937766736530   -2.86425549545335    0.71167204091179
C           2.43279073699419   -2.13586576395364   -0.38492746196070
C           2.33399927874528   -0.72871526019845   -0.47253971845473
N           2.27929239765830    0.40669404961185   -0.62470796785928
C           2.90374383026287   -2.66229821279616   -1.60749308668944
N           3.27782181436866   -3.00832508969417   -2.63659536204594
C           2.06954558862166   -4.31122322437884    0.86443525016823
C           1.28051356084244   -4.64523617205882    2.06476982998630
O           0.91243878246054   -5.73170886412347    2.46587363593166
C           2.73963236642713   -5.15519006187185    0.01482704159839
C           2.90470235357359   -6.54947593253278    0.02686209292542
C           2.50955635846817   -7.55077603727394    0.90220525804576
C           2.90917373924110   -8.83010582974595    0.53785792093352
C           2.61517750407535  -10.03219521301085    1.36695019445721
C           3.62582558470082   -8.84548309965082   -0.66381895143260
S           3.81090089786677   -7.24579109580421   -1.30363696662123
C           4.12656968316880   -9.95196781646009   -1.39223346780054
C           4.91568827923009   -9.92730000894931   -2.53087575017530
C           5.18005271751877  -11.18040104754868   -3.08271361829911
C           6.00177704087061  -11.36554815974368   -4.31248874437876
C           4.55873672699106  -12.20758344631467   -2.37426705137815
S           3.70934340723393  -11.58012294095956   -0.98823440485913
C           4.42312828088500  -13.60045385707174   -2.64914633208405
C           3.44496686336588  -14.32140583019958   -1.99748995117200
C           3.10901674982933  -15.64265086490236   -2.23983926515387
C           3.95717799329962  -16.49844352441010   -3.06943948664368
C           4.99128918106073  -16.01675392176139   -3.79744677057152
S           5.44356198527865  -14.35968376918570   -3.85446527857714
C           3.42729100343469  -17.81017720679696   -2.91213436374658
C           2.31113482958965  -17.77486152463811   -2.07087596528877
C           1.73312945448618  -19.05043363002731   -1.89970172223202
C           2.41162358390594  -20.00192190828896   -2.59424814865907
S           3.76415002845534  -19.39458605251594   -3.48611269720885
C           2.06225163496331  -16.41288745163789   -1.67440064065106
C           0.99008490441302  -15.92312251552767   -0.90737149744275
C           0.59221501303764  -14.60823435610670   -0.94937988494830
C          -0.29296156829921  -14.00188204139857   -0.05379782656512
C          -0.51743914343076  -12.63853797218245   -0.02876288197217
C          -1.37537642073382  -11.91710879336161    0.88448675374684
C          -2.23226715462654  -12.45248503185283    1.81505855435312
C          -3.04900088153691  -11.68542896706568    2.67026377853850
N          -3.74020072531052  -11.11829117113727    3.39093091851731
C          -2.43915888471588  -13.82793190035330    2.04224768425624
N          -2.66578893370090  -14.92700889048878    2.28854056265184
C          -1.20647150372254  -10.48758420105567    0.62616291520750
C          -0.31612811832819  -10.33042463239599   -0.46310785644776
C           0.16289918460020  -11.65903604763521   -0.89332908822405
O           1.00056972385422  -11.85557028143490   -1.76104400884506
C           0.02372589589282   -9.10284942665086   -0.97622922902426
C          -0.53886719275000   -7.96846875315816   -0.38122036657322
C          -1.40151776791561   -8.13197525972167    0.72735075165082
C          -1.74810290972407   -9.37682905541161    1.24288384854301
S          -1.98149461261683   -6.60589951124917    1.31594134892062
C          -1.09569584879892   -5.78525909424100    0.06546155386362
C          -0.38117459161992   -6.60255300684110   -0.74319015748130
Br         -1.21324182699259   -3.91562614953729   -0.06964075927710
H           1.73017811083711   -0.15054641134321    1.81655668823406
H          -0.99701081382241    0.42199370764372    5.04062493626131
H          -0.08919428514506   -3.94142791576502    4.47318548118972
H           3.25753924949517   -4.67718970775910   -0.80798673405027
H           1.94091593440095   -7.34313440394684    1.78958621232253
H           2.10233584435598   -9.73333858451267    2.27727368478793
H           3.53435498459211  -10.55404470313521    1.63175099068987
H           1.98053818049162  -10.73291145066826    0.82532461795788
H           5.27957865974448   -9.00624261611159   -2.95255702448392
H           6.31101358313379  -10.39833554362693   -4.69893917507557
H           5.43457399742261  -11.88475940579737   -5.08406483575425
H           6.89170838105376  -11.95585155115679   -4.09689734043099
H           2.88635858969534  -13.79009482008596   -1.24287628496800
H           5.60047926863958  -16.64151438295712   -4.43121036271319
H           0.86814843164637  -19.25821980327352   -1.29684482777160
H           2.20094810197854  -21.05226064429031   -2.64502414758700
H           0.46105349996600  -16.62215809004961   -0.27081952121622
H           0.99460531880879  -13.97753710014398   -1.72492061100456
H          -0.77033292427601  -14.62611877014932    0.68988742768460
H           0.69307868431804   -9.01972868338433   -1.81868527468906
H          -2.41664714210933   -9.44518263403432    2.08453327594662
H           0.22018269637463   -6.26042224041840   -1.56611113676972
