94
 SCF done       -204.812160283904          0.000568950603
C          -3.92265118581004   -5.14399095036161   -2.73364209548215
C          -3.86306789812417   -4.59092070588610   -4.00998246460479
C          -5.10099790097834   -4.12506521776778   -4.72408165598957
O          -5.07621798439912   -3.21912825592931   -5.50686901667314
O          -6.23740148043208   -4.76892156897342   -4.43777150362554
C          -2.62446049643824   -4.39360452319703   -4.64511131790899
C          -2.53531855616365   -3.86668546849396   -5.95929260468135
N          -2.34995968759098   -3.48945712597696   -7.02449819431859
C          -1.43500979705975   -4.74107163176951   -3.99928792713855
C          -1.51335780862461   -5.29581136862705   -2.74051781453625
C          -2.74512023937182   -5.51342345253154   -2.09913515125207
C          -2.50739798109917   -6.13796441036572   -0.79853286541956
C          -3.47903641372472   -6.56537946672242    0.06688972967353
C          -4.86161021393298   -6.44930047052837   -0.18948867515175
N          -5.99337674059600   -6.38882056639046   -0.37050758929329
C          -3.24222236397788   -7.19844087605964    1.30642530578521
N          -3.12716028781266   -7.72115786126798    2.32122177871958
C          -1.07600071071683   -6.32343530884510   -0.65879693760885
C          -0.40940575831673   -5.71200114517456   -1.84966823720770
O           0.76179331855672   -5.45573999744230   -1.98928268642025
C          -0.40701857725938   -6.88873922655074    0.38171210656134
C           0.94225522986499   -7.32681502011052    0.28817032047616
C           1.58574547561157   -7.84439623279889   -0.81515653864859
C           1.25313389974264   -8.20866742692710   -2.20765265193471
O           0.21587624970975   -8.10443311446370   -2.81633084566216
N           2.41692926446737   -8.76649518145037   -2.71320446933628
C           2.53747499850943   -9.24150802764921   -4.06955961854382
C           3.45945852770347   -8.82842204357962   -1.79271991564819
O           4.55706267768194   -9.27546849160889   -2.01644987954771
C           2.90251473776998   -8.25860767990774   -0.55978531296280
C           3.31119519475650   -8.07352775205158    0.74666734103821
S           2.00306286276024   -7.38831293013697    1.68311251995638
C           4.57018028615493   -8.38091216490696    1.31665392581118
C           4.95823977219329   -8.24865312378035    2.63130015951185
C           4.35199843028365   -7.79283675876852    3.88682591428891
O           3.24037703978926   -7.36668845649043    4.09756821759333
N           5.34594257970815   -7.95209492279532    4.83848717314934
C           5.16840000977589   -7.62087070207950    6.23078601855427
C           6.53866472599296   -8.46517581737855    4.32455492377091
O           7.52709636515436   -8.68044395866600    4.98165074000590
C           6.27652597338443   -8.66409819242597    2.89416509797434
C           6.94139969433351   -9.13272713852994    1.78181403101398
S           5.89899262053465   -9.03204528513034    0.37973037836871
C           8.29160685918517   -9.55602434768144    1.62911382614815
S           9.10153484921725   -9.01716397140298    0.20897798573164
C          10.63113044274353   -9.61999900875804    0.75846975672052
C          10.48113672482772  -10.25850741602869    2.02058829792775
C           9.13559973861341  -10.26810623462620    2.49950223819424
C           8.80972353482810  -10.97858660726004    3.68558079743126
C           7.42734353670587  -11.28429393430931    4.09340096878881
O           6.45511864373237  -11.25256439615253    3.37367496063914
O           7.33519169575956  -11.69928151441326    5.36443932731601
C           9.84114859852005  -11.52016105643072    4.42721285829637
C          11.16455130520500  -11.43329620121818    4.01248727042964
C          11.50350468808592  -10.84644279417868    2.80906965592002
O          12.77530866471816  -10.82814149586037    2.37380836098043
C          11.84665583156690   -9.49323533328675    0.07267496492752
C          12.11878022072455   -8.94779067282529   -1.15943587504124
C          13.42780656593911   -8.88529973024555   -1.78381833782025
C          14.62269816574917   -9.32178219534662   -1.27111628902937
C          15.85720002531945   -9.21194473856244   -1.94698736708439
N          16.89381338076482   -9.15528828880473   -2.43669103996543
C          14.83044451896633   -9.93805418088387   -0.01924475623380
N          15.11707557852969  -10.44864794309952    0.96926037437505
C          13.25901166230882   -8.25713569685217   -3.09197088917611
C          11.89016287973117   -7.93633616145294   -3.26951713020195
C          11.14320896761333   -8.34876744136005   -2.07147824992132
O           9.94532256567244   -8.21087062130216   -1.88334025393167
C          11.40582619445071   -7.33537326114769   -4.40563715682018
C          12.31869732860166   -7.03502735614911   -5.42208441697926
C          13.68445094504629   -7.35837983512645   -5.23875747842674
C          14.17243351095409   -7.96580845741425   -4.08763370560842
S          14.63891306782599   -6.90387701699045   -6.61683210447907
C          13.21107016687430   -6.29376827923048   -7.41016559776453
C          12.07629539463084   -6.42282529961227   -6.68172395044756
Br         13.35301954774205   -5.54628347211453   -9.12379283895098
H          -4.87212996607918   -5.24754035714051   -2.23044445119917
H          -6.13871832079988   -5.49574465690352   -3.80734628802652
H          -0.47885092360140   -4.58467008281617   -4.47452276726618
H          -0.90191478383879   -7.05783374023861    1.32898125131691
H           2.40529900853343   -8.41491631206520   -4.76865056339702
H           1.77652104033747   -9.99672361765178   -4.26854614211195
H           3.53126382584058   -9.67039395996093   -4.18363628763561
H           5.03136150197352   -6.54502376006528    6.34906041746085
H           6.06212177461932   -7.94024981563082    6.76409668737628
H           4.28961087220432   -8.13250233904791    6.62381749550390
H           6.41313501043251  -11.92038162486523    5.56787780781361
H           9.60902974568228  -12.04299459019019    5.34058897525800
H          11.94382383574024  -11.86712758807072    4.62338972111858
H          13.37807878248657  -11.24688877422243    3.00326622073440
H          12.69306576486197   -9.90138335123708    0.60467540051205
H          10.35689129319603   -7.10544771596833   -4.50706163936368
H          15.22197674194196   -8.19045201838363   -4.00077072554188
H          11.10777114116105   -6.10039071885838   -7.01768903178303
