98
 SCF done       -198.329911011222          0.000451062343
C           3.24182823682009   -4.03800236008671   -7.63497441818290
C           2.65301371484617   -3.37865168548883   -8.71513822777220
C           2.88360584463081   -4.01093857645133  -10.06200915780084
O           3.16450173261705   -5.17419435276033  -10.14782091334512
O           2.78454529016129   -3.24893945971583  -11.15241190648934
C           1.86056915081248   -2.23871062214465   -8.49277801309210
C           1.24038897831125   -1.51987024764311   -9.54119330508664
N           0.73239280701206   -0.89470419548065  -10.35893266215077
C           1.63062255557382   -1.77099976980876   -7.19113627697615
C           2.20939713668676   -2.44346162862685   -6.14014725266464
C           3.03093897517932   -3.56722221505668   -6.35280982677701
C           3.53117064076067   -4.02389685668825   -5.05725386732944
C           4.68572649933983   -4.73642771880632   -4.86234804714324
C           5.41200413440933   -5.36969251525029   -5.88919356807397
N           6.02673167436071   -5.93277922918533   -6.67807423924368
C           5.31573281821570   -4.82816824348615   -3.60235074256369
N           5.88949261411005   -4.85793983034316   -2.60876186500944
C           2.77586882271641   -3.32989220497407   -4.04149837983481
C           2.07397351962214   -2.19559799937331   -4.67923877322235
O           1.46946937905959   -1.29697479849310   -4.14228030151495
C           2.52161068856626   -3.65253284191115   -2.73520050437106
C           2.67621542959679   -4.89128329320835   -2.09822708494606
C           2.49939437885959   -5.12286835225277   -0.73051806726341
O           2.25623525777797   -4.15162606222259    0.17090438467502
C           2.47041280300989   -4.58562080671782    1.50571662751277
C           1.87223591352256   -5.97731131917896    1.76169613865229
C           0.35675657965790   -5.98421161583284    1.58326590326530
O           2.49014688055704   -6.93168760177162    0.89833366197528
C           2.62503907331566   -6.47215014833951   -0.36840070889043
C           2.89024569141624   -7.30267043491236   -1.44675073959302
S           2.97897969967599   -6.40783739393608   -2.92523260207136
C           3.06760978442684   -8.69757035002194   -1.41684833290906
C           3.42423578425092   -9.49620468731502   -2.49184538838515
O           3.63638790829530   -8.99548375792989   -3.73197524078523
C           3.70342285710971  -10.01432222406543   -4.71557161054890
C           4.55416982643275  -11.19690800898983   -4.23229365183269
C           5.99681590132983  -10.77209655763752   -3.96931631934345
O           3.96950467209900  -11.77740937280205   -3.06616039289346
C           3.54710098247112  -10.86089435601240   -2.16960880277739
C           3.23618244525142  -11.12333524796274   -0.83966147272371
S           2.85324489022005   -9.64716065013109    0.01714722057585
C           3.15611470007350  -12.35301645977243   -0.14572081030617
C           3.09455689238555  -13.65472114748264   -0.62368966588631
O           3.09361081991424  -13.99742375273603   -1.93544966602591
C           2.59966523929921  -15.30835794986960   -2.14009964173362
C           3.24151974168027  -16.30539493040944   -1.16674263654605
C           4.75488542362308  -16.37618280675291   -1.35190023913153
O           2.91263292182463  -15.93889931709283    0.17309873297182
C           2.97163887609143  -14.61496962198139    0.39955363728221
C           2.85825021457992  -14.06881000753540    1.67863451270352
S           3.03541771146777  -12.33113806906029    1.58818435229850
C           2.70801945631936  -14.79405803899415    2.86851666401182
C           2.34777552005186  -14.31796520987838    4.10068288038681
C           2.69817368226145  -15.06016172824604    5.33302990255683
O           3.10714411526283  -16.19392549377771    5.42014511256499
C           2.49027179110658  -14.08641807093084    6.43830500645549
C           1.95794658627935  -12.89480886687599    5.91260363894892
C           1.72424716360008  -11.81204952390372    6.74252963977328
C           2.00172085929818  -11.92988154741513    8.10293220049621
C           2.51702593716636  -13.12906047948569    8.62184997021823
C           2.76548623427779  -14.22002570175991    7.78123629679723
C           2.77268332578833  -13.28696813273563   10.00780455815213
N           2.97517341863034  -13.52360434985633   11.10974589985662
C           1.81629582144200  -10.76744317293276    9.03437056691829
O           2.51531664825663  -10.59565091835677    9.99121835469016
O           0.82611240627144   -9.91769732743301    8.73138968456450
C           1.71082889313166  -13.08311654886425    4.48374104278910
C           0.78173023761609  -12.38027316941824    3.75583416916445
C           0.29996981507316  -12.80462466078903    2.50021643808554
N          -0.16462052029492  -13.15644560903587    1.51101133859134
C           0.13045884739747  -11.23347596335569    4.24416977143814
N          -0.40246816427445  -10.28920115723856    4.62395101602896
H           3.83330220685463   -4.91778350078379   -7.83667950295496
H           2.50218610055087   -2.33502227672472  -10.99842474415876
H           1.00719892930418   -0.90628845204771   -7.02038767735152
H           2.04790950827861   -2.88105490446454   -2.13666564586435
H           2.00032803471376   -3.83751113312525    2.14410746324691
H           3.54951019922955   -4.61325079897130    1.70429134809230
H           2.13642497951701   -6.30589393147674    2.77115046566207
H           0.08223552360406   -5.60534289948434    0.60074393417986
H          -0.10626313407248   -5.36034154189317    2.34200928257930
H          -0.01660510905231   -7.00001583601420    1.68454855032003
H           4.14169468760300   -9.55209784080131   -5.60014167253888
H           2.68887700921435  -10.36506886566319   -4.94596951588111
H           4.52355473738858  -11.99649190070187   -4.97862354213538
H           6.03183805052378   -9.93130725115601   -3.27958790417986
H           6.46817600502676  -10.47631019359584   -4.90190874055270
H           6.55072677740062  -11.60194146001637   -3.53812573734155
H           2.83940063984041  -15.56184422013239   -3.17271626411928
H           1.51025465488920  -15.31805070199700   -2.00000881185400
H           2.79357423532875  -17.29481811463342   -1.30021894972557
H           5.19169113794498  -15.38052483885166   -1.30833789511624
H           4.98685306728978  -16.81915745460938   -2.31596370098831
H           5.19252698722387  -16.98710025929684   -0.56653270761089
H           2.97744482752359  -15.84381235882317    2.81491411883044
H           1.37766471095946  -10.87495107113165    6.33242552699849
H           3.16380348198562  -15.14210293590214    8.17644718172246
H           0.30962516236944  -10.17101593137444    7.95343114004574
