182
 SCF done       -304.463680334779          0.000921814569
C           1.70307378079412   -5.73603480376042   -4.38123971712081
C           1.50318982364338   -4.62289345263302   -5.19475524361158
C           0.16134407901996   -3.98533486226032   -5.27892247521669
O          -0.14281349363945   -3.15256251018598   -6.09119140495880
O          -0.68480782152944   -4.43931700365595   -4.34922095692673
C           2.55283161645737   -4.09210771956105   -5.96336967966414
C           2.38164027413922   -2.95856239944467   -6.79808932067786
N           2.37542528561767   -2.04766798768142   -7.49268508219715
C           3.82631606194711   -4.66735499836483   -5.90700771537134
C           4.01243817820871   -5.76458595305878   -5.09460987888687
C           2.96021986096204   -6.31459746402987   -4.33723737853254
C           3.45469358758215   -7.49265060338764   -3.62433819063606
C           2.66710790673346   -8.50198610890700   -3.14132793229808
C           1.25657271577566   -8.45360527893996   -3.11651947233798
N           0.11041234962794   -8.46339798920123   -3.06163939022792
C           3.14548787574939   -9.75358549606671   -2.69680090161499
N           3.44282524447086  -10.81627455170697   -2.38234866839676
C           4.89723437047029   -7.50941243987778   -3.77875952874204
C           5.25502886063752   -6.53321283185959   -4.84209904063037
O           6.33739689979832   -6.37686833633293   -5.35406116752999
C           5.87876604068671   -8.17034377248613   -3.11517201766412
C           5.79218411384098   -8.88935183351883   -1.87557099919120
C           6.61470320177122  -10.00347931223497   -1.66864726350385
C           6.49861120267954  -10.75286516187082   -0.52231472167887
C           5.62037170524432  -10.37214420970231    0.49617806330066
C           4.85517859988999   -9.21476367333672    0.32453014750742
C           4.92272587512385   -8.49948657834042   -0.84700498287243
C           5.46120214966083  -11.22393959393944    1.67717259135643
C           5.34714607209119  -12.66162180611289    1.37361820120272
C           4.55352564765569  -13.08401701740234    0.30762517924685
C           4.44360463301135  -14.42918644730710    0.00933892652017
C           5.13267437913731  -15.36887145132589    0.75788699763219
C           5.94161239854892  -14.95540017241141    1.80378713567881
C           6.05038693488860  -13.61265235825339    2.11050322338709
C           5.40826726907862  -10.74097982410583    2.94286571230588
C           5.03730274917712  -11.60222968277166    4.07895614120532
C           5.79019619072492  -11.58118204542818    5.25159925139867
C           5.44258945488275  -12.38249787635343    6.32275050027943
C           4.33058128599403  -13.20451933276013    6.24472173204203
C           3.56488895048467  -13.21778497951236    5.09010169854854
C           3.91394266671732  -12.42450460616002    4.01415815148998
C           5.74155792895678   -9.35425933974356    3.28699689464019
C           5.04265517219443   -8.69859822135775    4.30249193416699
C           5.38445054532041   -7.41822888741140    4.68443444247223
C           6.42869534623586   -6.74295847962137    4.05641902165922
C           7.12004950326279   -7.39113204080460    3.03454128451370
C           6.79299224045514   -8.67895180091388    2.66542450240900
C           6.82507813433832   -5.39557954967152    4.48560576188796
C           7.00850385845977   -5.11185350329987    5.83732955288657
C           7.44266000070153   -3.86859738194717    6.24664381380702
C           7.67892716561750   -2.85350528696089    5.31902740639405
C           7.47563293667332   -3.13477204940381    3.96682906557100
C           7.06459093205151   -4.38593430959015    3.55652276207061
C           8.20483366359670   -1.54423811194297    5.72635704254321
C           9.19773444070976   -0.95251272687776    4.81014286332106
C          10.24480015460516   -1.72602610731779    4.31356135430501
C          11.17463063603479   -1.17748169619870    3.45048032194508
C          11.06543202567898    0.14683614731554    3.05980715716306
C          10.01770168967756    0.91887752056870    3.53424372544690
C           9.09029634274259    0.37523598075455    4.40239786045504
C           7.83599827486295   -0.91567711235077    6.86547648244937
C           8.52321340686738    0.28778001655690    7.36366188692296
C           9.91425121050268    0.36262319451062    7.40091338608550
C          10.54203420530866    1.49144626342442    7.89107321062187
C           9.79391483869643    2.56194786788649    8.35321459886645
C           8.41100481804783    2.49128419388789    8.33521819116342
C           7.77977639516945    1.36071133502766    7.85213674296851
C           6.72069557124208   -1.37269927664827    7.70919694707930
C           6.89897504281713   -1.51201653917628    9.08446962554586
C           5.86217063333367   -1.92952134869242    9.89140038829917
C           4.59784713291722   -2.18931178976677    9.36041540389437
C           4.41650987593080   -2.01829876984264    7.98687114619122
C           5.45970633018219   -1.62683861546736    7.17388154176213
C           3.50176350614543   -2.64334351452370   10.22338431975690
C           3.42321732513382   -2.25018481741576   11.56068789608798
C           2.42387534331689   -2.71902824977734   12.38613599019930
C           1.44174143241433   -3.58525220792836   11.90256262215781
C           1.51083907688140   -3.96916637255593   10.56135050245948
C           2.51988196974322   -3.51076749955712    9.74203709945261
C           0.40547640406400   -4.14330142000264   12.77527590157314
C           0.02340669029577   -5.53866188621943   12.49520114798458
C          -1.31906600517986   -5.90425857392160   12.41541782308025
C          -1.67307148746724   -7.20944148848975   12.13294492135742
C          -0.69494091486260   -8.16905664510220   11.92852335079238
C           0.64201097055598   -7.81367412892828   11.99710429065391
C           1.00010433195522   -6.50720160580444   12.27117168552605
C          -0.15893612997484   -3.45574316208111   13.79986459381735
C          -1.01393405888672   -4.10668659245961   14.80880912177504
C          -0.64494328274854   -5.31607170228380   15.39480249076846
C          -1.45052996527897   -5.90433953082102   16.35070199953261
C          -2.63355004200183   -5.29547886112594   16.73697247107619
C          -3.00020315438240   -4.08556592261486   16.17136377317439
C          -2.19505511214824   -3.48911960427081   15.21935757322455
C           0.00451822957172   -2.01485649206937   13.99954988661353
C          -0.16200250330808   -1.10912558422046   12.94702155348335
C          -0.15041341526935    0.24466290425477   13.18184862238939
C           0.07961635343835    0.74701729387660   14.47124337784868
C           0.33146518093236   -0.16223797144525   15.50708010586772
C           0.24989035799214   -1.51508587500428   15.28236444021754
C           0.08642765091137    2.15224720053557   14.75583954373945
C          -0.63592361008352    3.13832513262151   14.16481834828292
C          -0.24308992711729    4.56042171502360   14.35693169812098
O           0.56126869796499    4.99288959141359   15.14626005757312
C          -1.01743580893649    5.31785075021822   13.34323983925660
C          -1.88911080054632    4.43889003012735   12.67465871930109
C          -2.67921733266146    4.90593908959416   11.63654202162284
C          -2.61980037218210    6.25431117519614   11.29367842255705
C          -1.76076654494477    7.12762263056527   11.98169224734396
C          -0.94685831545109    6.65449180631381   13.01587135969920
C          -1.70936177868713    8.51152363771272   11.67502011511168
N          -1.61806101835723    9.64319883903828   11.52759482512248
C          -3.41834865191368    6.79815992101406   10.14318744719632
O          -3.01768354782156    7.69522338185960    9.45900114146653
O          -4.60196622823126    6.21787584708656    9.91442178808399
C          -1.78238699437116    3.11102352278664   13.28010039771767
C          -2.76211114133621    2.15490013564540   13.21897807535337
C          -2.79574949021751    0.97539401240364   13.99210529321576
N          -2.93223402585424    0.02654905758328   14.62272910017412
C          -3.93036028299861    2.31509577588086   12.44592885434962
N          -4.88987899805441    2.43961463079251   11.82803610100784
H           0.87766630898352   -6.11491288971781   -3.80096308162612
H          -1.55079367030906   -4.01316461887314   -4.44769855312115
H           4.64282675183847   -4.26345456458751   -6.48622930951589
H           6.86335361147896   -8.10628237070040   -3.56900181641148
H           7.30175657859728  -10.30299413021442   -2.44613973925593
H           7.10088155290266  -11.64029719210195   -0.39375702905896
H           4.18271607307191   -8.90301335801730    1.10978587961668
H           4.32237606116513   -7.60860524962376   -0.96758284988416
H           4.01545515359477  -12.35554898659487   -0.28171684859402
H           3.81865769051199  -14.74351790727833   -0.81316404748313
H           5.04596641788348  -16.41951538774089    0.52345799696951
H           6.49337655562194  -15.68248933674427    2.38149921222338
H           6.69415896150606  -13.29372675477670    2.91701940462635
H           6.66071064063202  -10.94291584529067    5.31141752426848
H           6.04091548524198  -12.36526934107319    7.22210732865934
H           4.05922338591566  -13.82981636516108    7.08235686079551
H           2.69069880989143  -13.84906600107105    5.02841659547030
H           3.30991619845348  -12.42946866497714    3.11884524525593
H           4.22063621791557   -9.20320313799080    4.79002249450532
H           4.83046143741440   -6.92524961994990    5.47028183478893
H           7.94720185552173   -6.88930730735495    2.55349993592566
H           7.37410723169481   -9.18109951514387    1.90605323989294
H           6.84605472772305   -5.89002357802256    6.56932222471204
H           7.62643609738347   -3.68779472151787    7.29485499543665
H           7.64551048880963   -2.35938400304333    3.23334629569462
H           6.91351143138535   -4.58462818900680    2.50497188374474
H          10.33269827250671   -2.75899236409662    4.62072376020357
H          11.98751336125156   -1.78542549145051    3.08039214015920
H          11.79162917447171    0.57446258278542    2.38452900040989
H           9.92177276262298    1.94924500990398    3.22437435003938
H           8.26885030947695    0.97687971974092    4.76316376754541
H          10.50178336041791   -0.47467769631228    7.05428443223985
H          11.62106704040870    1.53577926580323    7.91507609989063
H          10.28687393148845    3.44530355875869    8.73116628327472
H           7.82202775611270    3.32022219123409    8.70021201104586
H           6.69997776731492    1.30824577045189    7.83620929363223
H           7.87074625842426   -1.31253516672201    9.51393791882069
H           6.04203422160818   -2.07590128948256   10.94605158724514
H           3.44003435449694   -2.17295904919822    7.55200928225879
H           5.29997203549472   -1.50058537537892    6.11273303211725
H           4.15440326827453   -1.56382309724779   11.96115184455340
H           2.41532395534317   -2.43076340654428   13.42695437346386
H           0.76044576286539   -4.63687990696129   10.16258405553351
H           2.56312340398728   -3.85305149726121    8.71879260975469
H          -2.08330264526916   -5.15574384080096   12.56409547050476
H          -2.71690487152267   -7.47930077070757   12.07021601308117
H          -0.97373506149643   -9.18960304385923   11.71220172264474
H           1.40859800548258   -8.55724931151301   11.83464603171825
H           2.04381256018657   -6.23131204155671   12.32806849933494
H           0.28410772006565   -5.78660184537203   15.10820677726482
H          -1.15197138909037   -6.84061383936979   16.79911352344407
H          -3.26332119088908   -5.75985831227435   17.48125515249590
H          -3.91659245553824   -3.60104152250896   16.47377633792091
H          -2.48571349928586   -2.54417585050177   14.78347954224184
H          -0.33472446649133   -1.48391328891837   11.94911189903408
H          -0.28674850070142    0.93356196214752   12.36001385483078
H           0.53107622162024    0.21264516754027   16.49998148616534
H           0.39116136244417   -2.20812975980200   16.09871835706030
H           0.78447023320771    2.48861613589585   15.51671253341826
H          -3.29783621556628    4.22678509653944   11.06892290455503
H          -0.27980903813808    7.31910245951480   13.54353216701368
H          -4.83739783462017    5.52297446365508   10.54519640855385
