108
 SCF done       -207.139377285301          0.000739540285
C           4.50835649444863   -0.90099556620019    2.12593178496755
C           4.71284548818325    0.45160605786863    1.86141336323296
C           5.25244341351669    1.39080277277622    2.90113796618119
O           4.99664459247203    2.56083075812527    2.89290054297080
O           6.03804727679638    0.85821330992467    3.84496792974111
C           4.36233134672427    0.99329658585599    0.61271832328609
C           4.57296389123066    2.36168788583591    0.30322724670864
N           4.73084401046255    3.43119448894766   -0.07489350493239
C           3.82016729317666    0.17955583148467   -0.38662795563878
C           3.62999521176458   -1.15650787766780   -0.11031254052265
C           3.96427496663253   -1.70919828379640    1.13953404005628
C           3.60905585460944   -3.12967654676892    1.14085376250513
C           3.44047729427415   -3.89594869468649    2.26454202151673
C           3.80203900777772   -3.47127027167198    3.55866327978728
N           4.12353086969453   -3.17051492022724    4.61925398712847
C           2.83199361330316   -5.16929568560427    2.28554721340160
N           2.28577085105636   -6.17134587077202    2.40547689914148
C           3.23699102888941   -3.47845646261949   -0.21470442675906
C           3.08345412108276   -2.22026410454642   -0.98928290922780
O           2.64929998470597   -2.09536002785830   -2.10883751992997
C           3.09644116107277   -4.67456221827997   -0.84560183810580
C           3.54257376925956   -5.96802714660802   -0.42821573848027
C           2.84388075033229   -7.11715711557798   -0.87397427712159
O           1.74702067701880   -6.89624983099516   -1.62201783506797
C           0.99017687612879   -8.00242558626423   -2.07034747682741
C           3.30752446065816   -8.36818156215386   -0.49585626805838
C           4.44333558126125   -8.53012371127298    0.29312929208733
C           5.11793299570468   -7.39301850504780    0.76942226856285
C           4.66336265871270   -6.14221825033239    0.38406322025481
O           6.19357669793747   -7.38656560308668    1.60820179095005
C           6.27945462458299   -8.36503189815524    2.62130830939745
C           4.89185537239857   -9.91456439613815    0.51915709075983
C           6.18031705569275  -10.31930251031474    0.12592498754183
O           6.97969974437282   -9.35665610161289   -0.40131674755324
C           8.27817105524243   -9.70476530663450   -0.81504562121301
C           6.53482351295765  -11.65112117547476    0.26988630859103
C           5.63899922309876  -12.59585866304577    0.76826405108927
C           4.35388118082849  -12.18458003387014    1.17158271613547
C           4.00642567193181  -10.84886261451864    1.03479991591771
O           3.52692402329323  -13.12810955082656    1.70834886243478
C           2.37732632784222  -12.69737816818455    2.40245467744889
C           6.02769000086585  -13.99721439269432    0.85953074132544
C           5.16345535816167  -14.99844760323876    0.51671112567080
C           5.43334004226610  -16.36343795796317    0.60534319829928
C           6.76549698431321  -16.83363242816731    0.98291196487080
C           7.78284579043714  -16.01348956519748    1.34133843462406
S           7.64671142168997  -14.30812075673864    1.42580278569154
C           6.72128361533033  -18.25163987626677    0.86079974601824
C           5.45341354179121  -18.64551543520835    0.44090542469131
C           5.34747585864716  -20.04609285961662    0.30956044541602
C           6.51631784095702  -20.66587391572122    0.62459557307997
S           7.78184483098571  -19.58464975575191    1.09375101405039
C           4.61537237493636  -17.47537359337218    0.29197913781535
C           3.26671714138467  -17.54025915222535   -0.08605011914482
C           2.32553854116894  -16.53756038124548   -0.05916885093287
C           1.01340441658065  -16.74942896245085   -0.48250333669293
C          -0.02043964121570  -15.83546060854104   -0.52617275847918
C          -1.41368602505530  -16.33175606148739   -0.54448535276271
O          -1.78277164663399  -17.46994517660523   -0.73853502726898
C          -2.25560522450039  -15.15563406281638   -0.22678419168827
C          -3.60050913614386  -15.08971179901732   -0.01511042620737
C          -4.18265387647749  -13.84570766101340    0.32317693115022
C          -3.35297340602443  -12.69347644898141    0.43426162279583
C          -3.93756384770922  -11.45955790013865    0.78052753877329
C          -5.28331963180348  -11.37279256870455    1.00432071864241
C          -6.10278806714163  -12.51233403797633    0.89328742090759
C          -5.56503422984339  -13.72408897664126    0.55906508222310
F          -7.41950398313241  -12.39970630648556    1.12026552488312
F          -5.83564494090408  -10.19633616183645    1.33351329114239
C          -1.96152201197160  -12.79304997176968    0.19694180015738
C          -1.42211600686382  -14.00627040673006   -0.13156452364432
C          -0.04843450748268  -14.40549163623160   -0.44358710135642
C           0.95059072118438  -13.52109040596310   -0.79346662787865
C           2.18305723141122  -13.88012995830799   -1.36516955171045
N           3.19940361930439  -14.07789717119398   -1.86499510742328
C           0.84568658315478  -12.12312588137339   -0.72412138040208
N           0.86797062707536  -10.97324611607124   -0.67062722566287
H           4.74398981220230   -1.31255916367322    3.09628209181999
H           6.17895322751435   -0.09364066862026    3.75219510138902
H           3.55237687885562    0.58836986896487   -1.34904348694369
H           2.62158998520363   -4.63193828872202   -1.82073837340439
H           0.14266146148327   -7.57601977237401   -2.60406843132201
H           0.63314878304955   -8.60980977957629   -1.23667681238868
H           1.57037483856714   -8.63090581026759   -2.75201151892097
H           2.80485618309995   -9.25943759287119   -0.83741766035562
H           5.23353768618517   -5.28471289025115    0.70670037922378
H           6.84170503748950   -9.24426174857946    2.29604944561491
H           5.28915528362191   -8.67712298562270    2.96097847415678
H           6.81094856057009   -7.89190961227548    3.44839092313190
H           8.72212500106933   -8.78176850985914   -1.18346851197241
H           8.25800818992702  -10.44495985680442   -1.62115270909970
H           8.87850332147486  -10.08647262016537    0.01735140478248
H           7.50896293526987  -11.99597427978387   -0.03942789428271
H           3.02785797572771  -10.50371709619441    1.32683812064071
H           1.94559739744983  -13.59884804274200    2.83652803547719
H           1.64624954524787  -12.23298715156862    1.73409835692327
H           2.63335778266410  -11.99573779173871    3.20046186927115
H           4.23183817935953  -14.68001455606801    0.08513660336665
H           8.75790658179361  -16.38687287993919    1.61213916441226
H           4.46412739727012  -20.57410519808779   -0.00037292392981
H           6.72508561996051  -21.71775105245882    0.61248063531659
H           2.93307923269222  -18.51215402059805   -0.43288160093478
H           2.57589206227578  -15.57515698258715    0.35436035877978
H           0.72114418595383  -17.76629366799575   -0.72571716267991
H          -4.21473319820888  -15.97295798644292   -0.10139243674167
H          -3.32557382844114  -10.57542628982250    0.86840807350421
H          -6.20608845842789  -14.58790505728859    0.47855005247816
H          -1.35829805254641  -11.90389598198319    0.29198529609109
