106
 SCF done       -203.880692426049          0.000695418928
C          -0.58921526824939   -0.49880016889367   -0.95753136714280
C          -1.18112260658790   -0.24716217221952   -2.19340386336232
C          -2.13883307518925    0.89331659522410   -2.38587971857521
O          -3.02999175365846    0.84452700102033   -3.18482821615479
O          -1.95354779716207    1.96927894103788   -1.61290672470455
C          -0.94442826989983   -1.10073151428886   -3.28398839289051
C          -1.50884036234167   -0.85500590358521   -4.56168210397001
N          -1.87545788526279   -0.73175122481529   -5.63965117674271
C          -0.11669191671035   -2.21875871274643   -3.14216258146929
C           0.45532269459196   -2.45454822474711   -1.91138850582342
C           0.24212389055824   -1.59924699240047   -0.81863883804720
C           0.99232499609145   -2.11379033280748    0.32371855029460
C           1.21189041306070   -1.42494445585541    1.48869711981543
C           0.70378256017053   -0.13009356408891    1.71971372811635
N           0.31769772958486    0.93200889820010    1.92427430031112
C           2.01819482743830   -1.85326198530065    2.56586942199117
N           2.67076472544996   -2.10064031815519    3.47759756096323
C           1.54959721932781   -3.40367613543960   -0.04989206752335
C           1.32018422913709   -3.58733603413258   -1.49949922424621
O           1.71166526156392   -4.46200976029652   -2.24436706853768
C           2.02347429298853   -4.28821000066255    0.88461617188084
C           2.63101931459581   -5.56785930653341    0.77964279658056
C           2.70471782840660   -6.36587228446214    1.95676298313653
O           2.14719082232811   -5.85207143637872    3.07346716480509
C           2.26626849103363   -6.54815646698236    4.29371245133879
C           3.29683788022378   -7.61123522845131    1.88832247577692
C           3.84172010450242   -8.14105319712195    0.71053805179371
C           3.79764773061706   -7.32492790934498   -0.45448617640426
C           3.21105118023093   -6.07876703479409   -0.38800811599894
O           4.35964761971385   -7.79771633748018   -1.59812700407069
C           4.31297431731393   -7.00390014581012   -2.76597943197316
C           4.41362985918677   -9.47019083411788    0.73756732524552
C           4.65024762826006  -10.24262025334679   -0.37086324039606
C           5.16908710197714  -11.53774753742297   -0.36433795905477
C           5.48150439117755  -12.24015607548536    0.88111953524278
C           5.34435003955643  -11.68204572242862    2.10307246999082
S           4.78015300363983  -10.08523485069692    2.35615140706392
C           5.92213197236325  -13.53118351735100    0.48437657677998
C           5.89591319795255  -13.63591190933072   -0.91035723341140
C           6.37248251579324  -14.89469853241754   -1.34428303134566
C           6.72108141997767  -15.68974813591556   -0.29946220622604
S           6.49956981044581  -14.95453827349655    1.25126657910373
C           5.42487697025411  -12.38926319653527   -1.45742257321771
C           5.28340615413943  -12.01618480983084   -2.81836757342884
C           5.26177562820733  -12.87242874073504   -3.86821472654534
C           5.16755174737730  -12.52933506383701   -5.25768325586862
C           5.48539342081304  -11.25094726893017   -5.79408749418271
O           5.91320296873339  -10.29156289228417   -4.92989252955800
C           6.49090473964832   -9.11728182435648   -5.45313383970720
C           5.37369180929069  -11.04704580047889   -7.15013400817050
C           4.99732386512163  -12.05942157208633   -8.05158147718138
C           4.66308264981204  -13.32893019637883   -7.51439531216857
C           4.76230532507920  -13.52732963809567   -6.15022911113870
O           4.21310116012347  -14.26363754758754   -8.38528621786396
C           3.80898079470629  -15.52247598789039   -7.89558791585530
C           4.91271883358243  -11.70150573635781   -9.42559327421224
C           4.90658166241892  -12.41716068545716  -10.58905477813939
C           4.42833417575418  -11.72873048122721  -11.81858964965474
O           4.20454360563012  -10.54853149766203  -11.95219160859045
C           4.25387439257653  -12.80103311417714  -12.82827376339059
C           4.69867689389148  -14.01854894813001  -12.28281728878295
C           4.58528263072771  -15.18607762877313  -13.01914152089592
C           4.05026783069981  -15.12831972910527  -14.30481659802340
C           3.62730760392303  -13.90338343148176  -14.84614463419681
C           3.72924996981677  -12.72459782956466  -14.09922649146009
C           3.11447442316243  -13.81132738920941  -16.16500590886055
N           2.72532087672614  -13.62578954310376  -17.22596678485408
C           3.85090452180474  -16.37315961483151  -15.11957964128372
O           2.94938817638021  -16.48786426415690  -15.89955381144696
O           4.73265222837475  -17.36142399382398  -14.92203300458388
C           5.24263000406103  -13.76932227818894  -10.94697099475326
C           6.10929988933222  -14.60831524496670  -10.29123955021388
C           6.81731160485474  -14.24534975555682   -9.13049004145852
N           7.42104071861078  -13.97890368427874   -8.19124401687580
C           6.44534264401100  -15.89122927558982  -10.76146027784902
N           6.72745822580045  -16.94495056159592  -11.12191636100430
H          -0.81435620946787    0.12830047201975   -0.10825488512384
H          -1.19422809743158    1.90867913312291   -1.01657729831060
H           0.06261440554249   -2.88413941571660   -3.97299210005639
H           1.86935311313207   -3.99332686812216    1.91609598178560
H           1.81810382898634   -5.89657196864366    5.04168310286433
H           3.31373073013722   -6.72841732897254    4.55023334159617
H           1.72396433027108   -7.49803240094055    4.26700534712152
H           3.32109341086904   -8.22500802578113    2.77370801483785
H           3.18772658428508   -5.45642815947373   -1.26274661861477
H           4.73923821242404   -7.62800741483221   -3.54947885195074
H           4.91355910931952   -6.09654455218418   -2.65594477731376
H           3.28790171106332   -6.73297753680667   -3.03063443693259
H           4.39017117667408   -9.81952848506833   -1.32665229059676
H           5.58236209070518  -12.20332939855301    3.01689782246475
H           6.47550900537292  -15.20513654906850   -2.36749525142914
H           7.10893015820414  -16.68897953619846   -0.33747205245739
H           5.16426949972441  -10.96057336435988   -3.00486688940343
H           5.26510986974258  -13.93449759594748   -3.66540304325377
H           6.90482612063057   -8.58875973081297   -4.59508729582612
H           5.74633010325245   -8.48304716195587   -5.94581042769667
H           7.29632255589108   -9.34770014505111   -6.15598439320970
H           5.61519672314353  -10.08535410955000   -7.57385480765412
H           4.51950120398869  -14.49144263406722   -5.73232510930603
H           3.47151460819766  -16.08214840961973   -8.76701992931110
H           2.98301679620957  -15.42906309849086   -7.18501844973064
H           4.64235041026207  -16.05380981242375   -7.42612837768504
H           4.77201645778972  -10.63616785251281   -9.59708249498237
H           4.86308488877357  -16.13606573054063  -12.58711458681249
H           3.40178242123451  -11.78079907579963  -14.50800167423286
H           5.43208649721963  -17.15004294574019  -14.28792394833191
