84
 SCF done       -162.060529586925          0.000904198326
C           3.85126447305330   -1.01435863987163    2.52163892685766
C           3.74249103217973    0.37210142696274    2.42827896866063
C           4.70241782016147    1.26910771480153    3.15179054585961
O           5.06233900062561    2.31965173097689    2.70207597276448
O           5.15214329334835    0.82562115867890    4.33309929607424
C           2.76675662766356    0.95523607343328    1.60405200310468
C           2.61400125775188    2.36211224590935    1.51998399492664
N           2.39140877205845    3.48084679629798    1.41740479950715
C           1.89432310695184    0.15372055343415    0.85836374533619
C           2.01973090303711   -1.21391577014427    0.95612561247019
C           2.98165523896788   -1.80706024843710    1.79331898764370
C           2.82724304117267   -3.26101194274805    1.72780499111057
C           3.22188307878040   -4.12432850643124    2.72442412700279
C           3.99307442960953   -3.71538027116275    3.82635953157274
N           4.62463158648141   -3.39454168810387    4.73120118953525
C           2.78225956874311   -5.45949288144587    2.81685770304285
N           2.40352281643998   -6.53454848156757    2.95660458018217
C           1.92490521471456   -3.54622767924220    0.64593756113451
C           1.26676272638697   -2.28307500786075    0.24728420610635
O           0.34493256124953   -2.14326453398660   -0.52321321948784
C           1.65256535966062   -4.70793790354762   -0.03457563301164
C           2.42827509005673   -5.86718492604837   -0.14402617764394
C           1.99226719059791   -7.09510672696122   -0.63830429351715
C           2.98959589413467   -8.05327133558804   -0.64428697002939
C           4.24100898338634   -7.55078414439520   -0.19133614679247
S           4.15736495365837   -5.90597801019079    0.25092328514848
C           5.17914674723079   -8.58757423274214   -0.22284999512904
C           4.53903913743422   -9.76478554206086   -0.67519031285283
C           3.14668993377797   -9.45533140860996   -0.96516683674016
C           2.19639878626696  -10.31458063702869   -1.44297842841477
C           2.48268791481207  -11.66687659212478   -1.71618394248679
N           2.71514496384242  -12.76731672622470   -1.94230375414753
C           0.87507842805503   -9.90095549574193   -1.70660477988896
N          -0.20033826496368   -9.57185430890915   -1.93105684950764
C           5.37851690004762  -10.86564845089180   -0.70213750148551
C           6.67028699346871  -10.55807512875451   -0.28337089921770
S           6.83483513991682   -8.85568437787041    0.14610419180214
C           7.76539221840640  -11.44559278277972   -0.16823314679296
C           9.03040072951399  -11.02631525422970    0.20054329501447
C          10.12894466607084  -11.85453499803937    0.36321290730587
C           9.98360973056701  -13.31442044139670    0.27583984487630
C           8.85372643369525  -13.94450402330024   -0.10832001835213
S           7.39978003590225  -13.13397625673452   -0.52602363368037
C          11.24232832417852  -13.84736164506852    0.67028800548056
C          12.12248016816411  -12.80567917453340    0.96320338553743
C          13.39416554477633  -13.27931409595804    1.35657222543106
C          13.44225027347396  -14.63659592335881    1.35565671816641
S          11.95937125399952  -15.39326626197212    0.87431106576393
C          11.46415886275321  -11.54552449377275    0.73677318500588
C          12.13044434113752  -10.31116013796804    0.83840384875345
C          11.73665104292195   -9.11162386095334    0.30693196042297
C          12.44455180740557   -7.89189613780255    0.38580560587563
C          13.57780493715152   -7.67598460926881    1.15799020044874
C          14.15859624768698   -6.39228595368313    1.07393649124437
C          13.52732693434508   -5.50026720331692    0.23325782395974
Si         12.02995180498950   -6.31272514771291   -0.53858978331718
C          13.94943097603927   -4.18200122823185   -0.01040220673212
C          13.29519696724027   -3.29845354643855   -0.86594766326802
O          12.17953805356816   -3.72963837943953   -1.49661564125343
C          11.52918736722581   -2.83359518825475   -2.36930326742001
C          13.91975638925085   -2.03872164395476   -0.95042267706317
C          15.03469996496531   -1.96516527141208   -0.16874627650894
S          15.35399337429804   -3.41377233143083    0.68648626698705
H           4.63427117276236   -1.46191714745827    3.11571583843049
H           4.77601436538798   -0.02276574781664    4.60759526272515
H           1.14353448669291    0.59760600434492    0.22251616841127
H           0.74839189378374   -4.68946548073440   -0.63522915630691
H           0.97267280616233   -7.25993034966973   -0.93754040254695
H           5.08828040351935  -11.85561757212468   -1.00523656584948
H           9.13936648046421   -9.96988079828156    0.40403245876192
H           8.78541745789128  -15.01775463032989   -0.18860247989496
H          14.22799598439829  -12.65818535701174    1.62875967661562
H          14.27298670790074  -15.26476118252600    1.61136427089559
H          13.09439181432267  -10.35786614745804    1.32762672562757
H          10.83779516589980   -9.08134827392257   -0.29266408607336
H          14.01204049676620   -8.42350471376261    1.80449951022108
H          15.04498360244554   -6.13482863667277    1.63596762455858
H          12.12448097471210   -6.48690773445128   -1.98666123446697
H          10.75505029874379   -5.73985319142717   -0.11356622428103
H          10.67170156379342   -3.37462520954440   -2.76447668760327
H          12.18435355778535   -2.53631660469703   -3.19368297448393
H          11.18413808218913   -1.94145088745196   -1.83834732721610
H          13.57257504311302   -1.22015844506025   -1.55389830747094
H          15.69139849093710   -1.12691800443906   -0.04830908559720
