98
 SCF done       -220.553038304772          0.000939236159
C          -4.82182147639432   -5.19200429947272    3.98444423259294
C          -5.51113398984506   -5.96296465626772    4.91860967168369
C          -6.77472227210034   -5.47142952394900    5.56642391038101
O          -7.09197769100308   -5.81279561897131    6.66975280039436
O          -7.52907177224100   -4.62907718256393    4.85317213857952
C          -5.00369247140141   -7.20616999042851    5.33147006694503
C          -5.69717287758930   -8.02791573355948    6.25690669996676
N          -6.18219618482685   -8.78753138851700    6.96302427349441
C          -3.79622434336356   -7.68527524486521    4.81414964749897
C          -3.12894413951540   -6.90820998042782    3.89333172073643
C          -3.63186339757712   -5.66957103202158    3.45823558979483
C          -2.70505908914037   -5.10130272619235    2.47644909143030
C          -2.92852204396249   -3.95088483655177    1.76474656309228
C          -4.10879301175842   -3.18681308558652    1.87757070640398
N          -5.06701241153587   -2.55649271994849    1.92677060504857
C          -2.05820203294654   -3.38949560196076    0.80591863590902
N          -1.40690287290975   -2.87024778138769    0.01603228858518
C          -1.57587494508361   -6.00353814072323    2.37675619789400
C          -1.83078334223570   -7.16215830591946    3.23357438983530
O          -1.12776431615318   -8.14432719733222    3.39052676322942
C          -0.44806674526956   -5.80501738957154    1.61367171353685
C           0.68869377498356   -6.60345362952946    1.45226013030435
C           1.76006853027975   -6.20791927572805    0.63553944181660
C           2.78531155012334   -7.12946368690228    0.62305974904740
C           2.50248985552475   -8.25563162734277    1.43847778936287
S           0.98823938973760   -8.17239210394575    2.20818672147927
C           3.60990752659969   -9.12878751841007    1.37147415655710
C           4.58969908317363   -8.57443921038992    0.52538012836410
C           4.10114773645324   -7.29872801905524    0.02412519053507
C           4.74312326211738   -6.44305749956033   -0.82021368889909
C           6.02765348772314   -6.72167305782380   -1.33506373317809
N           7.07080492027391   -6.94643225089044   -1.75327732435096
C           4.16695765445685   -5.22223126654593   -1.23337831970825
N           3.70323753206928   -4.23007436129825   -1.57086502112602
C           5.72913089594859   -9.36845766177028    0.41597352233656
C           5.62584863726476  -10.52415511951276    1.17583645123760
S           4.09497239049749  -10.62949838527817    2.02727501469595
C           6.59594244008935  -11.54693367451235    1.33505135908290
C           7.85949468600804  -11.61837544128121    0.77102329996577
C           8.55077374344400  -12.75520748118055    1.18755235157111
C           7.80582935427420  -13.55566378700444    2.07147483258688
S           6.25825499284665  -12.91497593235368    2.38606852889076
C           8.59876252528297  -14.66236487739689    2.46086046408640
C           9.84968033232893  -14.56521901671125    1.82743296043562
C           9.85790325119527  -13.36974239846380    0.99672517540251
C          10.87197854557875  -12.91731662195846    0.20715384220375
C          12.10470641604431  -13.59645896665951    0.09299155118331
N          13.10862020116711  -14.13996575342932   -0.00708006616147
C          10.75527232805996  -11.73497928729326   -0.55592126446808
N          10.65811556274691  -10.77595776128369   -1.17592792443919
C          10.71836145945245  -15.59988149235306    2.17774428402272
C          10.13234928914484  -16.47874979249894    3.07160606911582
S           8.48435485165710  -16.02767065878167    3.47666284146638
C          10.70669666686263  -17.62526119714438    3.68669331197237
C          12.00853110128547  -18.08496061456942    3.59945258786560
F          12.94505571772227  -17.48859973997829    2.85664839924813
C          12.25286285648335  -19.22399985641293    4.37730741483722
C          11.11198374253548  -19.64938802781174    5.06705939744612
S           9.75116348978696  -18.63997026810338    4.74771996872954
C          11.36565683360490  -20.77241662658255    5.85903323283171
C          12.70295304578116  -21.18141310351538    5.77011059385900
S          13.65505124899756  -20.20164561879865    4.69333352940807
C          12.97820983484979  -22.27689757724227    6.59527276444463
F          14.14806194527045  -22.90752796846801    6.60220630765366
C          11.87575245004488  -22.71855669976728    7.30832239360664
S          10.45021728314884  -21.77550783166469    6.91620612456404
C          11.78073505850559  -23.80101987923543    8.22418259955454
C          12.75900266855240  -24.15835508914640    9.09921605569733
C          12.77689613583654  -25.33279454278128    9.95232324319581
C          11.99727256128163  -26.44854668299410    9.80129893369620
C          12.07149383165045  -27.58357397805501   10.63611264686011
N          12.08464448350516  -28.52722315171577   11.28894230334399
C          11.04055135591307  -26.62103387374064    8.77820385842083
N          10.26008332453495  -26.82858031161548    7.96253089168994
C          13.83150398790754  -25.14643144681102   10.93857158255840
C          14.48930308824834  -23.91785788276434   10.67997685335671
C          13.86633778056586  -23.25411590572518    9.52056543466098
O          14.12786050855553  -22.15568603497583    9.08617567421880
C          15.53329385910626  -23.46087870922449   11.44753364686005
C          15.95171781669186  -24.25580841464541   12.51935371734971
C          15.28686319239325  -25.48081037081355   12.77236325409072
C          14.22976711981397  -25.94142958730849   11.99800321373698
S          15.95735372107696  -26.29867309493891   14.15001212934739
C          17.10678295380505  -25.00496047591308   14.36427541005678
C          16.99581987856794  -24.00990875413849   13.45164440314135
Br         18.34071373600410  -25.08806936604851   15.77289222653516
H          -5.19140281490377   -4.21657638830947    3.70741092451231
H          -7.18844911922160   -4.43268471479576    3.96950335289359
H          -3.39487178570044   -8.63559690135445    5.13176810109176
H          -0.40152989667802   -4.88412885738412    1.04481409145825
H           1.75127948646221   -5.27859980685005    0.09359971994421
H           6.59276162690843   -9.12794372277890   -0.17569500950316
H           8.24758306519325  -10.87446646371644    0.10028800312088
H          11.72217558793009  -15.71237996909914    1.81190379576506
H          10.83544289293236  -24.32910443165443    8.22819564533141
H          16.01341739114905  -22.52080265238460   11.22566075788317
H          13.74998390815202  -26.87652306732616   12.23441075005240
H          17.62294159925594  -23.13734028864302   13.43632954227007
