121
 SCF done       -221.313870205047          0.000752516829
C          -2.51449630662787   -3.54711892854465    2.11198660563195
C          -3.18746576019727   -4.32931782892884    3.04933708627622
C          -4.54662700875521   -3.94893257579997    3.55951794630580
O          -5.33672104132086   -4.76895497772363    3.93279007116076
O          -4.83930400305480   -2.64343534237707    3.57789751823956
C          -2.63012460421436   -5.53706422905231    3.50026231622984
C          -3.27401633010971   -6.34192724988589    4.47418645455958
N          -3.67837656275949   -7.05084252926443    5.27787412880580
C          -1.39465099282381   -5.97417066828376    3.01075789373798
C          -0.74669467181815   -5.18911916336913    2.08387565567021
C          -1.28416546870475   -3.96993395275841    1.63619849228539
C          -0.35754314806259   -3.37346814566135    0.67154784249050
C          -0.47938812909656   -2.10793953987680    0.15196617060234
C          -1.52369586123423   -1.22845799384091    0.49939357913027
N          -2.34937051600777   -0.48185561391387    0.78261011159124
C           0.43004044189923   -1.49068881533414   -0.73173538253616
N           1.12428090529027   -0.91609072892451   -1.44359734399744
C           0.71403437959308   -4.31910360864982    0.46165556943762
C           0.53184138816574   -5.44109702266161    1.37977459968596
O           1.26024240569437   -6.40345329942212    1.54583378628898
C           1.70837466393183   -4.20912607437647   -0.48862600441275
C           2.78420324461627   -5.04827504411275   -0.77377399043831
C           3.66048649155888   -4.79365933183352   -1.84297881498031
C           4.65927201849564   -5.73436642023200   -1.94592388012489
C           4.57267104822870   -6.73036251940372   -0.93432115654626
S           3.24797132701120   -6.50961268539101    0.11107437700162
C           5.63622108781708   -7.63695450826777   -1.11930298335563
C           6.39620824226694   -7.22859045399665   -2.23672785328289
C           5.80606970922907   -6.02361087017120   -2.79314292190393
C           6.22820888894092   -5.31557557766923   -3.87962068748545
C           7.36142807734531   -5.68213416248164   -4.63677172411036
N           8.27901470412701   -5.95891358250121   -5.26563010804694
C           5.55316419184746   -4.16108975799582   -4.32975771484065
N           5.00760875849701   -3.22473181195855   -4.70471758596261
C           7.47472016579449   -8.06633265057267   -2.49497718691970
C           7.55289903295460   -9.10666204795898   -1.57905385288585
S           6.26783865787723   -9.05406251099121   -0.39378098375504
C           8.55888799294809  -10.11856504218914   -1.54405733763472
C           8.59886185330275  -11.11437574095613   -0.56419976625637
O           7.56415504492405  -11.06563580051767    0.30634960661088
C           7.61820261352551  -11.60574312055225    1.61116428837318
C           9.62636780735477  -12.11610781747361   -0.52548080133686
O           9.42212163189086  -13.10267041616956    0.40092205841318
C           9.80125959433474  -14.42776974812874    0.09736736330464
C          10.70799114849255  -12.09664165427154   -1.39576044521661
C          10.64578199478777  -11.13395217284418   -2.43637244896763
C           9.58913304441111  -10.16041929440454   -2.51862871885526
N           9.82969294431857   -9.41026942176880   -3.57409902260979
O          10.95548977277354   -9.87700230749287   -4.11516129095045
N          11.46238355673891  -10.90845658955227   -3.44587968163441
C          11.91675864029928  -12.90279773328131   -1.25930442658279
C          12.47614185826797  -13.07628974117276   -0.01618718432339
C          13.71468093445582  -13.74310167352468    0.12124048704378
C          14.50528300902313  -14.02913987269445    1.22255064710896
C          14.27736621022601  -13.89307218023691    2.69455161183627
C          13.22704494311106  -12.86848359668059    3.13199615217425
N          13.45244000029500  -11.57578868349199    2.50288393976188
C          13.90500672855858  -15.27419659127313    3.27914835222261
N          13.85545159194331  -15.20988618872042    4.72928564868032
C          15.71529322880369  -14.64445301207520    0.71311978200040
C          16.84139989923645  -15.03545251268367    1.33637142994750
C          17.99988527160574  -15.59765499720708    0.58280604673259
C          17.76985207119674  -15.75563581632218   -0.88349084802983
C          16.64463953474297  -15.34299348297822   -1.49509592754711
C          15.59584073852137  -14.76047467378410   -0.74409092231178
C          14.38084199622873  -14.20947359524513   -1.09276538932890
C          13.76282093116962  -14.03455024582006   -2.35222877010098
C          12.56619912383949  -13.40225707893696   -2.43216289140345
C          18.46630945784123  -16.85823406729866    1.26973580099338
C          18.34763480783322  -18.08518739671614    0.75999249232609
C          18.80929072453018  -19.29710766804955    1.38841415148732
C          18.74116852011188  -20.50291966506139    0.75269486359728
C          19.21134922144259  -21.72160360712986    1.26786668462990
C          19.92006568100358  -21.75856585096964    2.56132165544448
C          20.07281823578253  -20.69236839433488    3.37245803713534
S          19.48509374860184  -19.12228977961188    3.00749886602042
C          20.35931638002295  -23.10066680310042    2.71121696849466
C          19.95611866211478  -23.84608392061191    1.60312724025653
C          20.36310055834855  -25.19608720978004    1.69353990076290
C          21.05185306657219  -25.43412017990965    2.83980318236854
S          21.23209883764061  -24.04236652752298    3.85599813212935
C          19.21958438917017  -22.99598704485688    0.70642814937464
C          18.63588952892167  -23.47210418078025   -0.52139193201107
C          17.56494915425095  -22.97579171452162   -1.13716209833157
H          -2.96849740227295   -2.64592107615826    1.72898232874394
H          -4.12518235344971   -2.06874131970885    3.26870032716700
H          -0.96393240218832   -6.90528304569371    3.34617314022573
H           1.65271442533879   -3.35055104757477   -1.14752159482705
H           3.53421053095999   -3.94487450790465   -2.49179762555776
H           8.18425881510741   -7.95509302627983   -3.29421391058920
H           8.59348528468782  -11.44715758830078    2.07242801745843
H           7.38507938286452  -12.67147948630162    1.61100530658380
H           6.85314497421900  -11.06658803410169    2.17078251014494
H           9.06911960924123  -15.06676188012381    0.59350264486758
H          10.80108844306804  -14.65561225171884    0.47837571881489
H           9.78328919642688  -14.61476310278257   -0.97817125528993
H          12.01939559172535  -12.61760411468008    0.84327488355481
H          15.23274676050284  -13.59494545029695    3.14771609966512
H          13.25495604904457  -12.83306063649379    4.23237170796877
H          12.22984431592403  -13.21712417047691    2.84962922289258
H          14.39887672978270  -11.25860889106358    2.68459937036762
H          12.81852997063531  -10.88404224456309    2.88856913421622
H          14.61887200087855  -16.02421079698174    2.89853050109489
H          12.90916265923175  -15.55108612569949    2.92207902672972
H          14.78418806119100  -15.05495071217692    5.10815191499426
H          13.50642988888130  -16.08064499738664    5.11255389222876
H          16.96944586439760  -14.94710469649789    2.40707041269892
H          18.82209875228603  -14.86928634851664    0.70449796234941
H          18.58444342762370  -16.19030802267107   -1.44283086725109
H          16.52825696995304  -15.44582249742047   -2.56413740097039
H          14.25739315849137  -14.39767162988695   -3.24059396202493
H          12.08724459707918  -13.24886522489901   -3.38525606682051
H          18.90783987494462  -16.71393250536492    2.24662152428485
H          17.89354010821102  -18.21953862998758   -0.21295912577226
H          18.32524761734130  -20.50603128978279   -0.24537620053495
H          20.57788236427488  -20.75175705950040    4.32382245218247
H          20.16136701637349  -25.95207533445975    0.95622574401677
H          21.47938843169324  -26.36073639374604    3.17006862987109
H          19.11983907796961  -24.34887193189236   -0.93591978547685
H          16.99936260004909  -22.15148753063844   -0.73871889429365
H          17.19854349505069  -23.40631936246923   -2.05330944902331
