108
 SCF done       -217.920381614109          0.000797284079
C           1.19822333026789    0.43380527048813   -3.20378278258461
C           0.97747252972470    1.44381819551002   -2.26629333690102
C           0.49783424658391    2.75605346652329   -2.83138241376312
O           0.70060451145319    3.03433609770569   -3.97975137992652
O          -0.17394945268406    3.58726378983362   -2.03293619076499
C           1.25500672628088    1.21502075901822   -0.90699535619432
C           1.06065979952459    2.19765818503671    0.09219349355911
N           0.90388417695806    2.95796665606223    0.93754059227548
C           1.77021373072067   -0.01709785078702   -0.48358573448218
C           1.97650510155468   -0.99851970635115   -1.42531100195895
C           1.68326279280082   -0.79265251585272   -2.78478428624472
C           2.00467109099042   -2.01517431150446   -3.51829249994367
C           1.67209767870085   -2.26826946264275   -4.82231024336134
C           1.00337069768480   -1.35224744156135   -5.66397323744808
N           0.44915540018862   -0.66405924951030   -6.39509848345656
C           1.88810091126822   -3.49818916043709   -5.48143239917069
N           2.01592018492696   -4.47587896065411   -6.06940917325026
C           2.61739562566385   -2.94122136353900   -2.58571098232673
C           2.53837200854853   -2.35759863940498   -1.23012212658759
O           2.90592519469817   -2.82547584339095   -0.17532426739582
C           3.31784548095963   -4.06114264388919   -2.95729827939473
C           3.84616973616588   -5.08918756274449   -2.16009315691425
C           3.56242543159585   -5.49182509328926   -0.85801692719444
C           4.28568735884624   -6.61428465825045   -0.48821440175991
C           5.15397575714122   -7.07778917937021   -1.50720549683459
S           5.03623205619267   -6.15525062629039   -2.92755483276664
C           5.86417587396422   -8.19441456135782   -1.01731776822777
C           5.43981540698079   -8.45988997563483    0.29865172579782
C           4.43020271777564   -7.47843782818714    0.67120413879740
C           3.75937265859038   -7.40061273407740    1.85546206059154
C           4.00939870331801   -8.30449392378312    2.91052286883770
N           4.22210647712267   -9.03656804617214    3.76681131139621
C           2.76205410990326   -6.43313074787548    2.10756206606430
N           1.93433726301274   -5.67149287386029    2.32652525472443
C           6.08492058384867   -9.55589254327892    0.86516004449415
C           7.01009404999435  -10.11603510430975   -0.00146221788722
S           7.07212682956781   -9.28447902360373   -1.54631975861457
C           7.86168739250708  -11.22186170988176    0.23899204558895
C           8.90419048884599  -11.66355186168861   -0.55666156258979
C           9.54631171521765  -12.77059290458115   -0.00757029399888
C           8.97493237419769  -13.18786340353885    1.21073676561968
S           7.66400883212335  -12.20254375306917    1.68692566272010
C           9.69236101692668  -14.31306146310869    1.68181614694882
C          10.72898853106529  -14.59691342044310    0.77408712161689
C          10.66725653280987  -13.63923082187770   -0.32011925331296
C          11.48845967560845  -13.57315327133774   -1.40714516436673
C          12.55361344027392  -14.47865607296466   -1.59661220731527
N          13.41847724528739  -15.21589833701766   -1.74803148309051
C          11.32375366324733  -12.59413178518614   -2.40975664631205
N          11.18788006669193  -11.79746367389144   -3.22293540200241
C          11.50260899224205  -15.68919846222239    1.15427301534250
C          11.05659992389439  -16.25912746817295    2.33587374644409
S           9.65892913314426  -15.41110817358105    2.99030027197337
C          11.59929719282990  -17.39282396981959    3.00522416372391
C          10.95853778640976  -18.02115369225610    4.04986368834780
C          11.44383524951925  -19.13911705983539    4.71863907088631
C          12.73649926959350  -19.73166249296311    4.37130464229500
C          13.53530804924635  -19.27862015740897    3.37920811430605
S          13.15114381582182  -17.93778131259626    2.38430724774377
C          12.89837713434558  -20.83021675849129    5.25864760856831
C          11.78265162635870  -20.94515439577418    6.09379331109733
C          11.91420227217270  -22.03201464396953    6.98889655864055
C          13.08929467913631  -22.69003236424034    6.80852690898572
S          14.08595799528614  -22.03182220891886    5.55699053960153
C          10.85201613073450  -19.89166133485968    5.76214480835719
C           9.58007192744134  -19.64582410388096    6.30690471096476
C           8.95257291643244  -20.42783728294226    7.23699266488081
C           7.65759852260736  -20.14605729272494    7.69785144031719
C           6.96807272051905  -20.92388858475704    8.59557840574836
C           5.62249414809693  -20.70282771261939    9.07781043604301
C           4.77877342866145  -19.67299390039679    8.73746018676836
C           3.47249278069635  -19.52028900346863    9.24502386594805
N           2.40341067332727  -19.33144230844690    9.62011422958797
C           5.07516689492162  -18.62816425917913    7.83996383484902
N           5.23421096307507  -17.74893694470988    7.11684580546205
C           5.29547975745163  -21.78733512768636    9.99951828287642
C           6.41637453891097  -22.66110461715132   10.08761742569506
C           7.49817919841379  -22.15628655632203    9.22473358675221
O           8.59508110356816  -22.66166118496828    9.07531985328356
C           6.40309802949335  -23.77700607986161   10.87275834661926
C           5.24372620757879  -24.07895141401216   11.62210377786186
C           4.11842741800851  -23.20961145324778   11.54161153896493
C           4.16294623998545  -22.05948723889366   10.71946261106865
C           2.96647073994462  -23.51970266431322   12.29224546103198
C           2.92572571690678  -24.63511756297443   13.08406996866343
C           4.03435235285375  -25.49080044227538   13.16200635260463
C           5.16893887262562  -25.21831191277396   12.44665437825758
H           0.99361764284891    0.65514438210009   -4.23976937186874
H          -0.24926244111741    3.30986484853675   -1.10787146796116
H           2.00291840622167   -0.19070440837173    0.55625451391318
H           3.53180332304458   -4.16992762768407   -4.01457413612100
H           2.85693721833979   -4.97937709717994   -0.23108693751947
H           5.91329151175478   -9.93525428256988    1.85652472715679
H           9.17423190068384  -11.18487126103980   -1.48094650388791
H          12.34273597801223  -16.07036125168626    0.60232659905947
H          10.00360434761664  -17.60914076021042    4.34928534525658
H          14.47892470914317  -19.74031678022556    3.13531844820336
H          11.19952052486899  -22.33079103596017    7.73308676306123
H          13.44725827578710  -23.54616961945501    7.34609442383939
H           9.04871653421317  -18.77764930245222    5.93489479098647
H           9.43887477886233  -21.30655918292292    7.62254945917367
H           7.17825925789487  -19.26077443874517    7.30022853174767
H           7.26675272292259  -24.42382792578031   10.92065228732110
H           3.29325782814429  -21.42316980177621   10.68137869875426
H           2.11510679076051  -22.85788859263387   12.22875760132778
H           2.03822731571435  -24.86421075287375   13.65479796974995
H           3.98515464599839  -26.36688252388100   13.79138286793827
H           6.02600656822764  -25.87367875933191   12.50258397982537
