106
 SCF done       -223.105049775972          0.000936109278
C          -2.50318504722139   -8.63836483987777   -2.17306213569284
C          -3.45379658121308   -8.26136457969873   -3.12272711743830
C          -3.82500229340827   -9.33048299193749   -4.11981121847893
O          -3.08683973908197  -10.25407323351270   -4.31911022981134
O          -4.99198517761565   -9.23522737773231   -4.75627750768071
C          -3.95509650175843   -6.94781423823064   -3.12905969445700
C          -4.92885415485660   -6.50095347311951   -4.05334793867558
N          -5.73068542017086   -6.09619529793845   -4.76784243622175
C          -3.48819518591528   -6.00012546309283   -2.20761170667368
C          -2.54660344057562   -6.39139680039079   -1.28386761526250
C          -2.06244800662007   -7.71293795073823   -1.24553016978865
C          -1.12615085392480   -7.83389789974750   -0.12848490310584
C          -0.84137924627801   -9.00215254480120    0.52717479290332
C          -1.27231455421090  -10.27500729107649    0.09685627965744
N          -1.59425323876585  -11.33471752364179   -0.20139446500309
C          -0.18115954973229   -9.04761686025654    1.77327468389310
N           0.31499986931709   -9.11623810808074    2.80605514334374
C          -0.84804510903649   -6.49447541548479    0.34189046111920
C          -1.86799161919713   -5.58457223923580   -0.23866517371118
O          -2.06546689357057   -4.42781958073621    0.04554264231448
C           0.15690751169455   -5.98571364255118    1.11221051389459
C           1.41264554180362   -6.55050028232348    1.41470415728801
C           2.24948609360489   -6.16822057622214    2.45545755488841
C           3.42697696671950   -6.90315263864303    2.48293820235146
C           3.51752421366275   -7.82757645511145    1.41705765599046
S           2.14838206782094   -7.80326755465636    0.40950230056730
C           4.73830126488553   -8.52420494956466    1.52606980673206
C           5.42221841892895   -8.06122802087932    2.66693348934578
C           4.62011750600237   -7.02304544206254    3.30103603087753
C           4.92868960560038   -6.32267260674698    4.42973030115764
C           6.12665568436485   -6.54606085351521    5.14098562783648
N           7.10269670957993   -6.72963341767369    5.71364650113513
C           4.07697477675868   -5.32679763972906    4.95389088335124
N           3.39243524893610   -4.51090523829488    5.37749787762800
C           6.63308025152102   -8.71189247148451    2.87439448672458
C           6.88629776066716   -9.66666705069585    1.89929969543515
S           5.59463578489441   -9.75255308885232    0.70609616283399
C           8.01143678407058  -10.53075387551965    1.79962144462673
C           8.17079851020762  -11.40944855061096    0.75016371906220
C           9.23252772151873  -12.29168645421083    0.60595280224632
C          10.29903138707966  -12.36963135289570    1.60419035000700
C          10.35354673874957  -11.59390442796937    2.71049971677574
S           9.17744248853889  -10.41259789037798    3.10991270489940
C          11.17682930002313  -13.38508120212192    1.13438247408186
C          10.70384073889176  -13.91172786393141   -0.07290806552954
C          11.56237272287657  -14.91850692222643   -0.56954595191371
C          12.62636376388769  -15.12343016483672    0.25083714769398
S          12.64100099449313  -14.11240005795221    1.65303808621878
C           9.48227168012057  -13.23300335389519   -0.42365738811223
C           8.65105790221704  -13.39638938835807   -1.54591008052115
C           8.78311320059415  -14.31894446599457   -2.54287170588642
C           7.90968992998105  -14.39423524930635   -3.64768570202444
C           6.84428986939774  -13.55554815946549   -3.97494473304491
C           6.21607247680051  -13.93733181850089   -5.14804688803891
C           6.78906727584999  -15.08412377743528   -5.73966664275949
S           8.11473929673959  -15.67638883912269   -4.83276571874015
C           6.07541404646737  -15.38399539536711   -6.91342774119126
C           5.05290936729145  -14.41673617153599   -7.08693303332541
C           5.11157165573827  -13.48062687237037   -5.98211925982733
C           4.31716581471157  -12.39277518364274   -5.76364075756092
C           3.30272526619258  -12.00989199690375   -6.66744135258812
N           2.49518718829704  -11.68291798361662   -7.41210703421704
C           4.47539133892904  -11.56912012226747   -4.63008709425934
N           4.60958718778268  -10.90184925308427   -3.70648578433032
C           4.30074683362065  -14.62962008912507   -8.23133881992515
C           4.69482301017298  -15.77006952788818   -8.92344323110666
S           6.08142802621545  -16.55198898658910   -8.15023076547085
C           4.15044488711970  -16.22172880832052  -10.13737661904784
C           4.29746797617072  -17.43336193633680  -10.75446888161481
C           4.07234438844935  -17.54673076833623  -12.21780871805617
O           3.57413752019763  -16.72281964584639  -12.94660052767805
C           4.64704817104205  -18.86362139300012  -12.59488146434678
C           5.07287032272315  -19.53221083941441  -11.43280091131318
C           5.69844051475548  -20.76331438405094  -11.52910435832214
C           5.87289729808214  -21.33605941777756  -12.78715553634299
C           5.42808088700319  -20.66935019641632  -13.94053567679510
C           4.80957346217925  -19.41783500735975  -13.84547901304358
C           5.56389167649480  -21.24744566969750  -15.22862512575916
N           5.59373860338109  -21.64405831855115  -16.30232580629941
C           6.59471846498270  -22.64312584423098  -12.94917343952880
O           7.26603834448702  -22.88586912274538  -13.91052760551499
O           6.45734257126220  -23.52417709648057  -11.95108469178588
C           4.71187036515457  -18.72529634807822  -10.26684081762530
C           4.50441137359718  -19.23597672856448   -9.00910905396177
C           3.87539366039568  -18.52150235742990   -7.96952347809718
N           3.33174552079571  -17.98294590562232   -7.11397231997676
C           4.78564798770675  -20.57441528090908   -8.67500964174969
N           5.00826821367355  -21.66494271786809   -8.39283526837647
H          -2.12636526491900   -9.64908819853039   -2.20760985759829
H          -5.50597960861025   -8.43407154988132   -4.57454079944396
H          -3.85971843536013   -4.98660340535706   -2.22594297518940
H          -0.00630379071373   -4.97794791457080    1.48241892219144
H           1.97258702246189   -5.41327039572568    3.16913583660277
H           7.30809259791918   -8.51541340524900    3.68786811549443
H           7.39671262154752  -11.39780937900036   -0.00573188609758
H          11.15254931448251  -11.66463840400219    3.43151517383268
H          11.42314844281586  -15.47044159848097   -1.48031047658721
H          13.42763740455315  -15.82385931588358    0.11837090386987
H           7.81803254684504  -12.71060386624910   -1.60804916145273
H           9.57803187465634  -15.04704339735592   -2.50629328679310
H           6.55561079774016  -12.70863910774472   -3.38136466976618
H           3.47690192064719  -14.01879977122858   -8.55441647227005
H           3.60366530823963  -15.47729180037396  -10.70858489552508
H           6.08902726218716  -21.25037273721378  -10.64782494282263
H           4.46987204848223  -18.90034221832104  -14.72966932470190
H           5.86934054519022  -23.23358470978116  -11.23952489234783
