106
 SCF done       -226.033349762488          0.000631565142
C          -3.59505894360179   -1.90664622171389    1.57200854264346
C          -4.10541796549751   -1.26165150556597    0.44365636599336
C          -5.29617691076414   -0.37110657686228    0.70228448754774
O          -5.89083357038910   -0.43865594654524    1.74148507165814
O          -5.66251101853610    0.50274395694398   -0.23502452175185
C          -3.52557574366387   -1.49021173408138   -0.81723432109874
C          -3.98597139088631   -0.88343057959935   -2.00938177161762
N          -4.30776639892141   -0.40966195543842   -3.00437318978814
C          -2.43757579250154   -2.36240332939531   -0.95073191603288
C          -1.94911728695221   -2.97857497337237    0.17803994764962
C          -2.51254683087707   -2.76034884074547    1.44650647475605
C          -1.77966881107645   -3.56266286348550    2.42645212879464
C          -2.10071323471957   -3.65898697356160    3.75414436643069
C          -3.13868369360647   -2.93247603017843    4.38141232798352
N          -3.94846901749430   -2.37457956838816    4.97146133819797
C          -1.46932263011885   -4.49753398768369    4.69918411363954
N          -1.02566362395948   -5.16137909300976    5.52458033286101
C          -0.71947920664915   -4.26398455609137    1.72076530076214
C          -0.81842437468482   -3.92906153644957    0.28400148268161
O          -0.11679533387588   -4.28867075879400   -0.63555097949942
C           0.25809434824906   -4.99996867160205    2.34192733123528
C           1.27479769790978   -5.81222699256124    1.81254464522471
C           1.52491201802908   -6.29423418153642    0.53014820715468
C           2.62891352583108   -7.12892005675940    0.49015782458952
C           3.25236760614678   -7.29279593316939    1.75343239620962
S           2.45524965635828   -6.43297826092842    2.98212968367734
C           4.36671087806027   -8.14231543885997    1.59719841673366
C           4.45503532923114   -8.52779863955586    0.24071969225830
C           3.35997290945350   -7.90888617036199   -0.49377131861060
C           3.07501007655493   -8.05512224859537   -1.81837739769356
C           3.87622255551358   -8.84660347914076   -2.67015835319332
N           4.52345448584967   -9.48867673104626   -3.36494711645084
C           1.95629277792034   -7.45272470934560   -2.43583936817431
N           1.04598530326934   -6.99349070394318   -2.95867304259557
C           5.51967039412061   -9.38057666529752   -0.01070113892256
C           6.25427905265559   -9.65517968828960    1.13952057518405
S           5.60452947709528   -8.83286516851548    2.54881817328031
C           7.38322216933592  -10.49521625715381    1.25694788193945
C           7.97478518543176  -11.24047751494917    0.25750796489856
C           9.06178595990476  -11.97160865370386    0.81226469499936
C           9.09501398493069  -11.59929148259459    2.23067380884558
C           8.10939651023669  -10.73114190918687    2.50557650108978
F           9.99233819862433  -12.07985463159580    3.09443971331288
C           9.89218686581535  -12.86998967827164    0.17962060417545
C          10.94527085415177  -13.64825976255304    0.73201375167172
C          11.47344579575784  -14.46279867943247   -0.25175415782444
C          10.75336251990796  -14.19422446507781   -1.50244371457303
C           9.83282040252187  -13.25748396104567   -1.23563209914636
F           8.96701105529149  -12.73023675287921   -2.10549766147923
C          12.50286134093144  -15.41024133528508   -0.06657994906471
C          12.94399715294947  -16.26355680764639   -1.03400977750892
C          13.93686543058720  -17.25174053943447   -0.85789344759133
C          14.70444368134596  -17.55145766630854    0.26453406386900
C          15.55163514874179  -18.62867504690435    0.04572316024877
C          15.44045770341130  -19.16667282205151   -1.25575089847263
S          14.29619065506272  -18.32813881458296   -2.20218938598648
C          16.32131948467028  -20.26367486965727   -1.37079019914859
C          16.99283036245915  -20.42657972907826   -0.13673581186809
C          16.54941185882003  -19.39326064515096    0.78040124349016
C          17.01447044548437  -19.16918678356039    2.04286575119272
C          18.02763934771408  -19.97870511363519    2.59935742487048
N          18.85223920333033  -20.65099522449660    3.02693739181922
C          16.52291460333883  -18.12095983385397    2.84880756236396
N          16.11097044025795  -17.27150202921972    3.49883928923036
C          17.88751711258548  -21.48389220600932   -0.14393675824669
C          17.92531007351633  -22.13551037068017   -1.37208887903814
S          16.79274819717002  -21.42410606190640   -2.52132301391305
C          18.67369903046716  -23.26281436684688   -1.75572879159994
C          19.75083929979122  -23.83022609579483   -1.13637146804763
C          20.10124083495489  -25.23935078745554   -1.46864529532048
O          19.67037558663388  -25.89469048379863   -2.38593845550944
C          21.04274936402151  -25.66525437264277   -0.40602792282987
C          21.32918518489865  -24.56656859897020    0.42422388698873
C          22.13386287646774  -24.73010771044587    1.53933889537905
C          22.67947005288882  -25.98501660296695    1.80011768135483
C          22.40639206381844  -27.07098964433292    0.95163573903338
C          21.57521448275632  -26.91249036070614   -0.16222207625753
C          22.97511777311068  -28.35108611603242    1.17706434235385
N          23.41080612278630  -29.40751436641784    1.24793991808148
C          23.51706024703438  -26.23149071869230    3.02398083655371
O          23.52509983804700  -27.29025175020461    3.58300240934194
O          24.24875261072970  -25.20218288245024    3.46204301730719
C          20.66613512403630  -23.37752715780521   -0.11460204673967
C          21.08414643876770  -22.09334733553753    0.12650361625916
C          20.59848273938393  -20.96210208465192   -0.55689743457167
N          20.23771675679177  -20.02019238016845   -1.10477535371826
C          22.14156249880755  -21.79080700305490    1.00956386713786
N          23.01857171368045  -21.53789954344319    1.70499386173977
H          -4.07723404470446   -1.70972167630478    2.51698481219882
H          -5.16082995653608    0.47003044780280   -1.06391482664756
H          -1.99369067786865   -2.54923461144839   -1.91704603532463
H           0.26830438905958   -4.95881930606080    3.42470319620667
H           0.91983393654803   -6.02759697252438   -0.31706164752012
H           5.76892036436895   -9.79403480310188   -0.97010125212620
H           7.66893808884919  -11.28164188199791   -0.76834551845683
H           7.87545744036238  -10.27970597695031    3.45012291332088
H          11.26264909607677  -13.61728291962027    1.75587551899122
H          10.93813025814918  -14.65812271011264   -2.45055106276856
H          12.93403861143980  -15.45637838187845    0.92390842714056
H          12.49982388725059  -16.21916505427247   -2.01828492899604
H          14.63683405884001  -17.00374716236407    1.18614993324407
H          18.45124867488967  -21.81151272944075    0.70997407198908
H          18.31101821443273  -23.80921561015177   -2.62117852584541
H          22.29443225298683  -23.91101622878724    2.22446506848918
H          21.35460769937909  -27.74622006841932   -0.81124289248911
H          24.18603900879501  -24.40240753042544    2.92092367563027
