104
 SCF done       -226.851369740669          0.000746277230
C          -0.11321712528042    0.46275557371899   -2.10870980971015
C          -0.13102104740832    1.54397803917801   -1.22659776226121
C          -0.72856127725871    2.81479184562954   -1.77605082232810
O          -0.78294184836892    2.99715074391928   -2.95961643802784
O          -1.20836525011086    3.71726422829691   -0.91975784217865
C           0.43482306609469    1.41677112339875    0.05433128774054
C           0.45287423563539    2.47383667478607    0.99492623147348
N           0.47794947196745    3.29556549621775    1.79555649096016
C           1.03691557039975    0.21540423781471    0.44983001013198
C           1.04013416104613   -0.83742102862085   -0.43602415251441
C           0.45723722635725   -0.73390303739933   -1.71116438424111
C           0.61477536008540   -2.01375159257928   -2.39872476950482
C           0.00583979187147   -2.36070379307916   -3.57426372585231
C          -0.83494333433124   -1.50186306446423   -4.31729282949969
N          -1.53525641998248   -0.86445325150838   -4.96398679727863
C           0.07584546819346   -3.63835280895105   -4.17232086914063
N           0.07266732474925   -4.65878460457155   -4.69809375143725
C           1.42232068780376   -2.87367989264387   -1.55167751619142
C           1.63816119484338   -2.18254064860089   -0.26125719283463
O           2.22568654376622   -2.57168526711235    0.72313783745847
C           2.01625337760143   -4.03312222315859   -1.97736327917756
C           2.72278942685239   -5.00533431313576   -1.24748804839513
C           2.78981279339815   -5.28017943429182    0.11488966589621
C           3.57367318111578   -6.39105221123677    0.38572438958847
C           4.13043677324351   -6.97587961662752   -0.77677705180971
S           3.65335547051394   -6.17674579283920   -2.19606946834999
C           4.92702853343087   -8.07635844645308   -0.38750211311952
C           4.86873160273794   -8.20408245303238    1.01276603136240
C           4.00969430161878   -7.15460150817095    1.54347350813080
C           3.67380075479451   -6.95252661140883    2.84869008320115
C           4.17673512223626   -7.77649017305033    3.87903251101399
N           4.58948885831911   -8.44902226944503    4.71060840164108
C           2.78798540463108   -5.93326458659208    3.26303875977621
N           2.05893033307288   -5.12662377502808    3.62454865046890
C           5.61890060630255   -9.27594196866453    1.49019007408945
C           6.25430011509863   -9.95838622284599    0.46578421344549
S           5.91547510256914   -9.26812578340450   -1.11220515456529
C           7.09064803707438  -11.09713950771230    0.57551699004167
C           7.78881928103122  -11.72597649580426   -0.44072906022698
C           8.50246732202184  -12.82830103693189    0.02372188923371
C           8.34005693487893  -13.04441085968958    1.40445495918585
S           7.32143193164412  -11.88304587660548    2.13108283433651
C           9.08371607619777  -14.19380409608025    1.77183994811308
C           9.72279876125543  -14.69915434833591    0.62482634625833
C           9.38202584832370  -13.85616136592219   -0.51039486424857
C           9.79644321049025  -14.00082822941224   -1.80094760010768
C          10.65508115068589  -15.04884641470389   -2.19657240058546
N          11.35144532455092  -15.90267439449815   -2.51273735577311
C           9.39151443729399  -13.11176599276143   -2.81964666363725
N           9.05915322550103  -12.38695220866711   -3.64306834074174
C          10.47065273596492  -15.84585028815240    0.88099136484196
C          10.39981163993394  -16.22256467128881    2.21100108905205
S           9.40058551085714  -15.13275716744288    3.16202324602098
C          11.00728461256265  -17.35111869717865    2.81551977356488
C          10.87539737638962  -17.78274685279424    4.12518948052220
C          11.58997560524875  -18.95505562399313    4.35901571497849
C          12.27899917473989  -19.41431471661982    3.22050120103292
S          12.04186592533859  -18.40330390946209    1.86400107297971
C          12.96208595934914  -20.60837636477452    3.55140676951960
C          12.69263637181588  -20.91131867319413    4.90457771742063
C          11.83695608857691  -19.87657346459950    5.45745829880065
C          11.39299832010765  -19.78598872117180    6.74378047016873
C          11.73939573219847  -20.76030206369241    7.70410560404770
N          12.02948514030133  -21.56923794958143    8.46328920651488
C          10.57033913438192  -18.72625111153128    7.18051557581093
N           9.89647679964490  -17.86431570828127    7.52225056866112
C          13.32541118995771  -22.06575792254292    5.33626531554742
C          14.09102553076013  -22.65378010867900    4.33546600198451
S          13.98184552363519  -21.75555468579480    2.82202016763194
C          14.84243225929002  -23.84254075174726    4.37323982795546
C          15.25530157062893  -24.57229122836250    5.45198509624652
C          15.61678085735997  -25.99993632370481    5.23684384935064
O          15.80020613064932  -26.55066109732300    4.17856951258944
C          15.64313949495873  -26.59870215322724    6.59186352410280
C          15.45051555536553  -25.58802096681192    7.55142650498244
C          15.40213515777008  -25.91306425049467    8.89751238747982
C          15.55785955971850  -27.24438909288706    9.27860400442889
C          15.77259918874987  -28.24174533058785    8.31227268423122
C          15.80787290884326  -27.91804585748790    6.95230098442836
C          15.92171133206969  -29.60778999752022    8.66648322988108
N          16.01570417998545  -30.73778800576752    8.82675647071123
C          15.56642775201968  -27.65951715901182   10.72326345059081
O          16.17506666400410  -28.61927730305838   11.10006371166729
O          14.85921662125366  -26.90471941192392   11.57032546127689
C          15.35012727661701  -24.29644358682880    6.86752717613056
C          15.56562237524966  -23.08010846141466    7.46308046280673
C          15.71290086600914  -21.87404369798831    6.75033570632557
N          15.85728650486059  -20.87495136723394    6.20405968573067
C          15.73887274807765  -22.90626580731401    8.85228685458874
N          15.87077650480385  -22.72643571101403    9.97765901826210
H          -0.53855906850823    0.60720871835190   -3.08970030347041
H          -1.07905937608609    3.51633346343782    0.01904108480749
H           1.49011687104127    0.11891060629303    1.42495658043615
H           1.96813353135414   -4.23740589199274   -3.04100194927242
H           2.28467036447608   -4.68670943409834    0.85405822757743
H           5.71323566895345   -9.55787348398847    2.52351316436880
H           7.76811673169629  -11.38435925873030   -1.46010499313196
H          11.03624083894236  -16.39444856834845    0.14929949865532
H          10.28019666892733  -17.26248762935300    4.85421957559235
H          13.20223368908881  -22.49962344516365    6.31138209520722
H          15.06728683986931  -24.29649776713848    3.41250916467795
H          15.26905643925754  -25.14027724741551    9.64017590921429
H          15.96335502581046  -28.68111113114585    6.20493618951684
H          14.40078479694106  -26.16110342540629   11.15609646336904
