108
 SCF done       -226.380007859705          0.000879320178
C           0.70774764657991   -1.74095722993476   -6.04325204458846
C           1.12676749213418   -1.77144192591686   -7.37212760148827
C           0.43055112066230   -0.96983050029438   -8.43484151434691
O           0.39714202126471   -1.32857824171309   -9.57713846925795
O          -0.15679916538834    0.16629305475475   -8.04404303787031
C           2.18325093306017   -2.60851284598360   -7.76770173593593
C           2.65195403717786   -2.64015755755371   -9.10626288854506
N           3.13612551102957   -2.72044231019663  -10.14093964516093
C           2.82725521106124   -3.42586264683628   -6.83342493440983
C           2.39871461166818   -3.38173825952185   -5.52530851123218
C           1.35242444059362   -2.53886023850168   -5.11145927904026
C           1.14487651274104   -2.71389893625496   -3.67193846999261
C           0.26916252682558   -1.97960124477359   -2.91339437077839
C          -0.52061889201482   -0.93421502704355   -3.43479387758198
N          -1.15874570041757   -0.06120961657246   -3.82101108582650
C           0.05511008749536   -2.12288018116728   -1.52599441737483
N          -0.17726284534622   -2.17638520526799   -0.40292623543114
C           2.05876480410794   -3.74489006212880   -3.22708553073084
C           2.87824415101470   -4.16275501527918   -4.36473799153860
O           3.77459887781357   -4.98723134943952   -4.37707886510432
C           2.14188090248177   -4.25436074319090   -1.95076819851069
C           2.97555890941978   -5.24355980893131   -1.42208197965638
C           2.88356412556036   -5.64602663116459   -0.08007645445811
C           3.78161061626677   -6.64166440112686    0.23735205584373
C           4.58616916449712   -7.01499898699594   -0.87296677420061
S           4.22918094702198   -6.14115373343909   -2.28800199183166
C           5.45777302303836   -8.04389176500187   -0.45353434093274
C           5.21364243156292   -8.32472958443506    0.90529999266151
C           4.15293469854906   -7.45411738724778    1.38442408196381
C           3.62115163768079   -7.42915194883575    2.64058641139029
C           4.07574050844758   -8.30357306795959    3.64904504392854
N           4.45777326479694   -9.02676494757512    4.45279535508692
C           2.58693845635330   -6.53917011771604    3.00212447128073
N           1.74781254243652   -5.81408767826848    3.29069132830279
C           6.02193217321810   -9.33892243862157    1.40420943028137
C           6.88089109984988   -9.84036561937073    0.43804235669818
S           6.68971187801783   -9.03724915064087   -1.10908889570504
C           7.80670486811244  -10.89502373529250    0.62498734304749
C           8.68863810690294  -11.44905896068580   -0.28852681144001
C           9.41823902759103  -12.49552544455381    0.27324110105570
C           9.08277204520734  -12.72661596603428    1.62214486907335
S           7.89486414511547  -11.66248456104284    2.20400896880785
C           9.84266200231055  -13.82246774013008    2.09107605558814
C          10.66841617617671  -14.28698347840436    1.05260656858782
C          10.43236060401426  -13.46041988178984   -0.12395978554686
C          11.03357024629379  -13.57264188019992   -1.34284634500643
C          12.00714985380566  -14.55902696459789   -1.60736207953707
N          12.79429430967558  -15.36448096549300   -1.82122321182093
C          10.71765474446572  -12.70940389519583   -2.41345945842303
N          10.45815361565831  -12.00752176058709   -3.28183609924524
C          11.44420567444979  -15.38401998881783    1.42785573744631
C          11.21863996956720  -15.75431430304191    2.74265686905781
S          10.01492669798150  -14.72827504419731    3.51970239356868
C          11.79575098498619  -16.81954681848675    3.49216042757361
C          11.54839061479396  -16.94975838118513    4.84119203814057
C          12.01794634040568  -17.96799324690912    5.65774008584361
C          12.91884642061251  -18.98998674275357    5.11593765996217
C          13.30665923332567  -19.04873935224913    3.82020519901042
S          12.79723769029953  -17.94921908163063    2.60799268676496
C          13.26294993980146  -19.81974860854736    6.21857311658930
C          12.62706264140448  -19.35598553302344    7.36997291714439
C          12.93116967418831  -20.14603000196076    8.49909401556858
C          13.77315599535442  -21.16512929551725    8.18155764602588
S          14.22730612335339  -21.21047596646822    6.51269122709665
C          11.82538123291424  -18.20025950517995    7.04357880405926
C          11.05909987306029  -17.51576563758938    8.00263660021340
C          10.15278732655566  -16.50334075714919    7.81426197879436
C           9.48069491425017  -15.88764965930601    8.87677622056887
C           8.62672914312321  -14.81025589688015    8.80435788735379
C           7.65485127734193  -14.56878372233886    9.89719247941292
O           7.64335391154470  -15.08992491657948   10.99049122384430
C           6.67999160264264  -13.60113461283041    9.34699170920453
C           5.53646620815950  -13.11656568897786    9.91037083864905
C           4.74322100814737  -12.20187058255449    9.17961864316780
C           5.15490212845661  -11.80381982517510    7.87475859783373
C           4.36211422456269  -10.88974353231916    7.15212146720603
C           3.21057293879382  -10.39786371998916    7.70069576189843
C           2.80197174626939  -10.79393550000156    8.98923589765500
C           3.55269029144435  -11.67564236159906    9.71599330996648
F           1.66597797875111  -10.29827115756140    9.50125559532069
F           2.45238365601982   -9.53187879468919    7.01407896821599
C           6.34878984176910  -12.32138291591761    7.31916426325815
C           7.10023838216144  -13.20597119081704    8.04492912965497
C           8.37432110928897  -13.86286031523344    7.75506847911410
C           9.24865720569061  -13.46855861252394    6.76507661188864
C          10.59955903341316  -13.85742239124728    6.69951190167508
N          11.71868634763381  -14.10329866011747    6.60839585433464
C           8.92903179822453  -12.56052544435014    5.74332435905224
N           8.72811617105811  -11.86689008734478    4.84806441431232
H          -0.13604835884701   -1.13335069444237   -5.75408919765357
H          -0.05592546871695    0.36829080446135   -7.10354838732353
H           3.63492371077062   -4.07753231227213   -7.13019555477406
H           1.45247342732624   -3.84851624079731   -1.22015988270872
H           2.17551070684005   -5.20680105439931    0.60059091052810
H           6.00552689844147   -9.71039118515975    2.41259312759695
H           8.77833108464627  -11.10025874911592   -1.30186298641581
H          12.14536603777769  -15.89217619185645    0.79025689278526
H          10.96812066283049  -16.15865210381784    5.28544469030989
H          13.97321332424467  -19.81295504931431    3.45241693423834
H          12.55539871581056  -19.97828136025004    9.49185545445733
H          14.16960732086465  -21.91607928667002    8.83661657893253
H          11.22424539902373  -17.83405482290130    9.02587628180881
H           9.89614995836394  -16.18371514193846    6.81822524452495
H           9.56241429245525  -16.34087583803176    9.85931290507520
H           5.23972576071580  -13.42337306819914   10.90177814141000
H           4.65811739539293  -10.56158578837818    6.16791929793918
H           3.22734354440890  -11.96700972001369   10.70237544565684
H           6.63199872925529  -12.00768575970147    6.32696858594499
