100
 SCF done       -214.608736196012          0.000790038743
C           5.59573253295237   -8.97437076721918   -8.78727135016632
C           6.65366311082934   -8.76172560779670   -9.66481599719399
C           7.55120293378276   -9.89699469029269  -10.01731032298107
O           8.74200510724491   -9.74807725216201  -10.12527945762990
O           7.00314633720962  -11.10517940724792  -10.12639487483548
C           6.99285662787367   -7.45838473361982  -10.06942106567011
C           8.02135302307714   -7.28362533527355  -11.02140691482676
N           8.80386159222895   -7.12667035475099  -11.84465263967433
C           6.31102780253755   -6.34791850416493   -9.55656777340790
C           5.30937117553527   -6.56994077886484   -8.63455959149717
C           4.92936189635306   -7.87573149905047   -8.27853297889841
C           3.88575212159560   -7.80541842183995   -7.26582912051965
C           2.95803417384042   -8.78890952247708   -7.01763410847307
C           2.98717563897512  -10.03225938099487   -7.67292687873483
N           3.02030033868307  -11.05140981040172   -8.20172821296073
C           1.88891981206870   -8.61429392128292   -6.11625076978656
N           1.01414798374707   -8.48669414470979   -5.38465427057096
C           3.86096118218166   -6.44856154532570   -6.78390083210376
C           4.55138806596322   -5.59868608370736   -7.78347761120542
O           4.57183163703255   -4.39464893974846   -7.85148296165780
C           3.52118074755423   -5.99690027237701   -5.53021578216833
C           3.56623179113169   -6.78576153507441   -4.36872064384998
C           3.24272737416253   -6.43022415046748   -3.05826473668027
C           3.65513220744650   -7.37514830864620   -2.12927942674042
C           4.33056543854631   -8.46692692104549   -2.74202587532662
S           4.38909917197610   -8.35538869535327   -4.43010990123426
C           4.81346788665129   -9.31896991308335   -1.75427739624941
C           4.46140579320834   -8.80318350498927   -0.48407775597701
C           3.68905357626967   -7.58005921574468   -0.69421423155259
C           3.12749942696344   -6.80285413618631    0.28200299208635
C           3.22934097599822   -7.16117079427698    1.63989697304112
N           3.32403134922289   -7.48312755020154    2.73755263369716
C           2.41803341331692   -5.62084580734768   -0.01011317198691
N           1.84977564715199   -4.65342299008133   -0.24718125896250
C           5.01052402094273   -9.53187188559527    0.55720686098932
C           5.81909256258821  -10.58366017481606    0.10660899381833
S           5.81356096733896  -10.69756588885268   -1.65565721813958
C           6.54897522725194  -11.48779946621109    0.88619315426652
C           7.60126385700130  -12.34981646111340    0.54205396664283
C           7.98164981657274  -13.17506787347608    1.65973354398976
C           7.25768892721416  -12.93908563008846    2.79698994226856
S           6.07125911191600  -11.70779287213624    2.58520134633699
O           4.64107471884950  -12.50244331023741    2.26227200613560
O           8.99932909944985  -14.03405467623338    1.64830610307604
C           8.24249615759058  -12.24947835861728   -0.71912602680620
C           9.01285104325738  -13.11026877330298   -1.44192869336104
C           9.44046756184571  -12.75426695992553   -2.74985375526714
C           8.99378394008599  -11.68125586383045   -3.51331062762204
C           9.58887170409316  -11.63399360110826   -4.76351939134485
C          10.52058956623008  -12.66725782457495   -4.97991092575450
S          10.62961833149247  -13.71197218172664   -3.62608739648667
C          11.08006203508916  -12.49275610660585   -6.26624079187470
C          10.47832032504653  -11.36283701309670   -6.87484941858154
C           9.55274881259543  -10.77017300500547   -5.93592306095226
C           8.84203542364159   -9.60547683819027   -6.03297627990026
C           8.90431707362518   -8.69576262878117   -7.10524232658169
N           8.91069925481160   -7.88425249658787   -7.91636256384840
C           7.99616580875322   -9.16770873946081   -4.99433101353953
N           7.30126351000718   -8.79836940597834   -4.15821985238104
C          10.95169415811365  -11.12312813043890   -8.16184497770726
C          11.94705812134807  -12.01723670931210   -8.52605181585483
S          12.27295917695325  -13.19411539073258   -7.25592760905473
C          12.78638306495771  -11.98806694394357   -9.66591433746791
C          12.54372657455187  -11.40580555939001  -10.87039254278871
C          13.68684841950762  -10.98269354528604  -11.73176158620658
O          14.84043151284291  -11.32080604634175  -11.62233080515032
C          13.09960082708110  -10.01128898470209  -12.68311560703102
C          11.69995809640906   -9.99927980578020  -12.53309842284410
C          10.92374381571658   -9.10346176824375  -13.24829668125231
C          11.55267201952175   -8.23312404080716  -14.13368374068286
C          12.94457384199230   -8.28529329646117  -14.31725082604713
C          13.73172273606693   -9.17282314829092  -13.57622161158665
C          13.60435434542296   -7.41158004621965  -15.21893581971974
N          14.23253907278299   -6.72777431959442  -15.88940658859557
C          10.76001742108755   -7.26522647986629  -14.97542397737678
O          11.07340981595876   -7.03923327855045  -16.11278650106468
O           9.71281567658335   -6.69120761122731  -14.40531177258696
C          11.32413933149035  -10.99107078959641  -11.53070911665294
C          10.10795982940094  -11.60804207378437  -11.44627812900696
C           9.82748577391737  -12.63351351293251  -10.52170880658131
N           9.58062019265014  -13.46787312413135   -9.77358905848802
C           9.03348325193332  -11.31502037540973  -12.31328871339313
N           8.14040733320766  -11.11063787237274  -13.00353192744145
H           5.35356394848140   -9.96905874443644   -8.44260062480784
H           6.03484846667449  -11.10959369815197  -10.10546193195636
H           6.58837616129517   -5.34668337705748   -9.84841074965421
H           3.37385992532951   -4.93151697682527   -5.40224160010846
H           2.73840388371006   -5.50961830329604   -2.82307562256909
H           4.89133929618402   -9.30689565510563    1.60232594270353
H           7.44778400509903  -13.36758813163796    3.75861632487608
H           3.98584118182969  -12.39212630278479    2.95989655200616
H           9.45969533916311  -14.00126042136581    0.79821488831160
H           8.05285685605400  -11.30119299219926   -1.19836788330717
H           9.28442354974488  -14.10182895476481   -1.10493412640003
H           8.24323789166936  -10.98904059463852   -3.18462780414682
H          10.61854576766395  -10.32173180565550   -8.79831622404513
H          13.78854646817104  -12.38468704362085   -9.53330926101909
H           9.85317532098531   -9.07522069297296  -13.11561578215994
H          14.80414792899182   -9.19526653913422  -13.69725668255616
H           9.55199285139845   -6.91702438215136  -13.46177569528429
