99
 SCF done       -207.043953279541          0.000654487739
C          -1.79606502097385   -3.81926431561760    3.33489716669569
C          -3.11656215227588   -3.49208921202929    3.63418918515582
C          -3.68587287849572   -3.74813194005654    5.00100911189081
O          -4.82955331610403   -4.06099989668468    5.16563933056596
O          -2.83980778239228   -3.61808095770723    6.02939377839817
C          -3.96424921260584   -2.97324817411103    2.64140924845226
C          -5.30204287220427   -2.60143571661422    2.93191410427413
N          -6.37796413191018   -2.23888801135077    3.07927050891478
C          -3.49869534895423   -2.78316453719768    1.33590852618121
C          -2.19122327520376   -3.11443383421712    1.05471427515896
C          -1.33004252396902   -3.61781058925325    2.04680672603287
C          -0.00333597142416   -3.81415415419904    1.46289393139008
C           1.16693045154951   -3.79401543729225    2.17878420304810
C           1.19785409092724   -3.75428590813933    3.58630190883656
N           1.23388264840582   -3.71988374457541    4.73325150635595
C           2.44135435722801   -3.68425361598474    1.58584868228090
N           3.48996852654209   -3.55671385437970    1.13723206969527
C          -0.14348520457485   -3.67985872319225    0.03243521074105
C          -1.46511671014048   -3.05443197469673   -0.23907438512736
O          -1.86938674069170   -2.63446981393089   -1.29555812909716
C           0.65032451894665   -4.06220370260231   -1.01026014652951
C           1.69575006393519   -5.00468786789886   -1.03833199942038
C           2.63503980078590   -5.14268622339355   -2.05428361976426
C           3.51781069788155   -6.18662657319999   -1.82043503814912
C           3.22727962120461   -6.89223244530349   -0.63077005981994
S           1.88851077303904   -6.25125149835759    0.19827499054975
C           4.16655696172735   -7.93516397382390   -0.48232504209585
C           5.06530769193177   -7.88850841419299   -1.56567553685967
C           4.68184786989388   -6.79448089112300   -2.44519720702107
C           5.28299111064575   -6.42446135415166   -3.61113655275274
C           6.41207033654613   -7.09870648710161   -4.12582588559935
N           7.32482160553392   -7.64262265613607   -4.55514923616336
C           4.80552106054186   -5.34783580091704   -4.38972515568367
N           4.41136256723719   -4.47717464731382   -5.02235911929931
C           6.04819350016537   -8.87076133760683   -1.49824071203342
C           5.90879845004548   -9.67565886303285   -0.37971251168410
S           4.53127067603646   -9.19855577894830    0.60583256643861
C           6.72220345375445  -10.78271341584194    0.01623959365695
C           6.38867666184938  -11.58308873731660    1.10172117356931
C           7.15177065040405  -12.67261156929148    1.48996789046551
C           8.31997143743557  -13.06072095445419    0.84015800761333
C           8.72632327913494  -12.24754395577241   -0.26788578314242
C           7.92176855882802  -11.11785374101091   -0.67675617402980
N           8.42012083687203  -10.44701747268854   -1.70142778612002
Se          9.91073983624690  -11.16408853887668   -2.24091620055989
N           9.82290635452545  -12.40374095457330   -1.00323276027812
C           9.05900737114490  -14.21973553569809    1.27239663397009
C          10.18750979852284  -14.65787475171366    0.62093920227987
C          10.94363149074830  -15.76990431615511    0.96186027932365
C          10.50275852766146  -16.72201873348309    1.97444262228559
C           9.43924154657671  -16.48424030063722    2.77919958580341
S           8.46329805208328  -15.07767738971418    2.68700398583603
C          11.38424155747661  -17.83558665034754    1.85398932310568
C          12.30357866090685  -17.60485190873831    0.82561362405588
C          13.20806401297162  -18.67521670402670    0.66581909794475
C          12.95450405850046  -19.67446831535165    1.55218135201210
S          11.62439421839440  -19.35693167791393    2.61227749482478
C          12.07848215729068  -16.29132028503659    0.28449145570550
C          12.76806832162190  -15.63268952343874   -0.74232215236006
C          12.78240129557799  -14.25116050959144   -0.81069091257323
C          12.91515150622620  -13.42439386804141   -1.91955266656802
C          13.16518512389648  -13.66746958176880   -3.26198943608690
C          12.46634581917146  -12.82880867165585   -4.23768992430570
O          11.72326870679631  -11.88676497492101   -4.00108079782716
C          12.76368607619293  -13.41669373037990   -5.56275663105650
C          13.62998484671102  -14.51300121209527   -5.39036004194275
C          14.07264865206386  -15.22133035487783   -6.49300198389427
C          13.63953045257013  -14.84265619482428   -7.76478360098572
C          12.77468720811080  -13.74790074308375   -7.92250258410072
C          12.32941534960357  -13.02573892146429   -6.80897191771691
C          12.29507512952898  -13.34566875143974   -9.19577597603227
N          11.80883542003451  -12.94895826753617  -10.15393219985088
C          14.11593907985711  -15.53708800392346   -9.00702938941193
O          14.12852500241714  -14.99003501612980  -10.07275278844028
O          14.52650713585849  -16.80400251132697   -8.87395213694904
C          13.93729089490138  -14.64790704885944   -3.96166664614396
C          14.92951293742028  -15.44343453515785   -3.43340779018899
C          15.39203699525626  -15.31856841049546   -2.10911266695708
N          15.81561949015359  -15.22779293521045   -1.04584384682328
C          15.61766993350729  -16.42543461715868   -4.16810700017938
N          16.15806157240258  -17.26953586155861   -4.73000886114968
H          -1.16124525672887   -4.26835934456745    4.08438671985879
H          -1.94902777469668   -3.33210188014989    5.78251107509909
H          -4.14778259257612   -2.38848602222597    0.56914188486498
H           0.38326764226905   -3.63519857747257   -1.97260463773232
H           2.66980079627993   -4.47761493171664   -2.89835387979033
H           6.84099874079714   -9.01756328282309   -2.20807560959823
H           5.49232079992802  -11.35609303473905    1.66045583673839
H           6.81227994167708  -13.25010337124013    2.33700972480289
H          10.47259056693557  -14.09134264724718   -0.25256438510759
H           9.12627546711258  -17.16854385993886    3.55196948672251
H          14.00258885742201  -18.70567938613512   -0.05695292306980
H          13.47764513623459  -20.60447898208623    1.65891532893174
H          13.23830933032442  -16.24463052528519   -1.49919090161481
H          12.51745394670944  -13.73574902361436    0.10247841643169
H          12.56198710544807  -12.40781512944318   -1.75100547702566
H          14.77002465734362  -16.03688344934979   -6.37053940602711
H          11.67006477176172  -12.17939470952897   -6.92698589218730
H          14.47062415428518  -17.14889876262952   -7.97250272164126
