140
 SCF done       -289.067296038992          0.000810152824
C           7.03602232603851    2.55666465094221   -5.33776310981572
C           7.27568457796211    2.81652246606256   -6.68807101717572
C           7.13555563857842    4.26091163849004   -7.09904330434388
O           7.18278308929196    5.13383789249123   -6.27876919374439
O           6.93564955213797    4.54335140714733   -8.38705767176513
C           7.65825390724520    1.77213145853524   -7.54843746200499
C           7.92271489288866    1.96092368114572   -8.92534488688920
N           8.13418719761692    2.05666684348997  -10.04955308223328
C           7.80867736257640    0.46854449451697   -7.05853912180142
C           7.55588784967956    0.23601790022935   -5.72649867322467
C           7.16134667848271    1.26561581557851   -4.85338143497727
C           6.96682617615664    0.70050540298387   -3.51715124575853
C           6.57759353464272    1.41208188214743   -2.41413587361226
C           6.27722650992228    2.79334987296140   -2.41842539799406
N           6.00027247062447    3.90346495130071   -2.33999638353901
C           6.40608028497398    0.89169611252637   -1.11255737230115
N           6.24924865776902    0.55506755029600   -0.02584078020214
C           7.25984257182756   -0.72048282835214   -3.59869063974948
C           7.64654152078711   -1.03909753567513   -4.98085374538499
O           7.97156863393326   -2.11247080616885   -5.44488382903750
C           7.15779056558493   -1.61415049490180   -2.56599896612680
C           7.41207320954315   -2.99760125148607   -2.52045147314064
C           7.21234272226282   -3.72822239722657   -1.36068371668530
C           7.51920563376778   -5.08951291756815   -1.47789309973707
C           7.42409229015085   -6.09618751466849   -0.48389528634105
C           7.05071017722416   -5.80798154203984    0.88277974749113
C           6.30434190607804   -6.57524048079237    1.73399728413726
C           6.19440681078413   -6.01399343210576    3.02321348333303
C           6.85984195669559   -4.83135739312688    3.18398391804599
S           7.63365055928523   -4.38267720917263    1.70503338851814
C           6.96690494417001   -3.97964652700444    4.39389473683475
Cl          5.29562052916001   -6.77136121855826    4.27996807932040
C           7.74412022902240   -7.38386244511012   -0.88983936517986
C           8.20964539734940   -7.70399486484637   -2.19413681403083
C           8.32870947858357   -6.69717193070121   -3.17352785530553
C           7.95138995534927   -5.41040233997690   -2.79389996487719
S           7.98796673101469   -4.01205436695393   -3.82583660218740
C           8.83740585162322   -6.95601132752990   -4.50501586656506
C           8.43266969389020   -6.39317757450498   -5.68224637042378
C           9.19308305418266   -6.82886045701436   -6.78840930723567
C          10.18887991479761   -7.70986422618574   -6.48028106863448
S          10.18897359424002   -8.02659050377494   -4.77941179641256
C          11.17569542502475   -8.35404599367738   -7.38248009422567
Cl          8.87731534720957   -6.28310898641945   -8.38919538142961
C           8.49505352111135   -9.08210630379552   -2.32310408041379
C           8.27828210670409   -9.79992801425903   -1.18054083820721
S           7.69471856936260   -8.79815615930265    0.12963311946047
C           8.46989751679447  -11.19429812486052   -0.98240090215390
C           8.07543607970403  -11.95254092385522    0.10137258290217
C           8.43570076814586  -13.29369262180610   -0.04152170172016
C           9.12554638129300  -13.54858165416349   -1.23817603649796
S           9.30749754535390  -12.14846899060528   -2.19708786886292
C           9.46952692824843  -14.92568069024657   -1.27864178825321
C           8.97954821134469  -15.54149199238962   -0.11525499237277
C           8.30968478347151  -14.53907162654948    0.69874136372907
C           7.68937675024036  -14.73267348287022    1.89766676604551
C           7.06698951157208  -13.67858237463428    2.59981019339334
N           6.56184428032110  -12.82396509538810    3.17303391176123
C           7.62282623221744  -16.00341842024426    2.50727579601328
N           7.56748154374272  -17.03870684242851    2.99709864255777
C           9.28115704794117  -16.90161269921987   -0.05159620783014
C          10.00616654387083  -17.32044651734195   -1.15148258249527
S          10.31097691017465  -16.01692538850885   -2.28496796620574
C          10.50767659661845  -18.63040959750327   -1.39098253861615
C          10.19079976442316  -19.76944037519896   -0.70338531803941
C          10.88918637284747  -20.91494078524589   -1.14660490866548
C          10.82164529596413  -22.22326029308524   -0.62258567308271
C          10.01274934095544  -22.56365618842349    0.52902470557787
C           9.31267381459948  -23.71731267545208    0.74740748615643
C           8.67581493005178  -23.74034920845813    2.00604884604194
C           8.88647183871880  -22.62631842727715    2.76746724114714
S           9.89001584723590  -21.50846791295348    1.91249354814743
C           8.38563667614003  -22.32028378142127    4.13010768496553
Cl          7.71297918607123  -25.06976953924998    2.52397014236482
C          11.60664991101657  -23.18172941573920   -1.25610941436879
C          12.46987501966719  -22.88378299605707   -2.34358740555839
C          12.57114892023888  -21.56348904279665   -2.84090825167851
C          11.74724786697025  -20.62073709685440   -2.23854902513204
S          11.67973890640464  -18.93080923937677   -2.65361504852529
C          13.53491411505937  -21.18887122080485   -3.85135346756510
C          13.42574021660438  -20.23733677636823   -4.82775304765446
C          14.61242689215068  -20.07906328357992   -5.57304857039039
C          15.64465065001373  -20.88290940692956   -5.17690389966636
S          15.14125724617079  -21.87619551229594   -3.85824837310555
C          17.01838319549189  -20.96917459239064   -5.73257936257156
Cl         14.75536413560840  -18.96038802242176   -6.87118384312272
C          13.17609240593888  -24.01943798673565   -2.77728299810153
C          12.92745093394766  -25.15013880033656   -2.03626720793410
S          11.72589020251396  -24.85329160181811   -0.79754048021081
C          13.46265408062194  -26.44786427401836   -2.20535176907401
C          14.60210279125349  -26.80657106291672   -2.86174490382465
C          14.78612824251437  -28.22080830782577   -3.28792613883950
O          14.14125915509508  -29.17764615790756   -2.93635070793060
C          15.89428173827711  -28.18483308838314   -4.27473845443921
C          16.40624108209083  -26.87649271730408   -4.35040434043874
C          17.41638176903305  -26.57925250484391   -5.25045483050029
C          17.93069938663593  -27.59633628965042   -6.05100583432362
C          17.42613902647764  -28.90385557344188   -5.95367079696031
C          16.39444373407794  -29.20247391587274   -5.05761614860260
C          17.96036369530254  -29.96237045469407   -6.73236532015798
N          18.35380255414722  -30.88316731111138   -7.28760510016868
C          18.98606755393654  -27.31069699528731   -7.08186138877068
O          19.03543460087068  -27.89922458394192   -8.12287617609585
O          19.86391277597163  -26.34658223081486   -6.77944423212787
C          15.72681557791071  -26.04394163637893   -3.35748635610809
C          16.25107397472459  -24.89578516737919   -2.82177134693561
C          15.74432266241645  -24.26727448195312   -1.66475339031149
N          15.40231265813287  -23.75421370349777   -0.69767918921529
C          17.40759692534443  -24.27051560389987   -3.32532721896691
N          18.33564862009531  -23.73641962517927   -3.74091485936732
H           6.76057305059028    3.39051352230553   -4.71104921677557
H           6.96026433429820    3.78741345604928   -8.99268919058773
H           8.11607759340911   -0.33462141981252   -7.71127874054072
H           6.82751013279118   -1.22048494373007   -1.61249571169673
H           6.83897666287838   -3.26935355120622   -0.46329188020867
H           5.81018730325362   -7.48636769175489    1.45291107437409
H           6.34127672854845   -4.38646143240722    5.18422915739297
H           6.64969250242770   -2.96086983124612    4.17549100894129
H           7.99785925096416   -3.94035748536175    4.74563991365901
H           7.60410583182981   -5.71719487714017   -5.77840597764060
H          10.92410617404390   -8.13139266941451   -8.41638136229698
H          11.18079464425951   -9.43362580331520   -7.23978816095551
H          12.18075332198394   -7.98416277540200   -7.17876240985118
H           8.83429402789518   -9.54304160411662   -3.23247600396816
H           7.55023854692402  -11.53437918779484    0.94121910717237
H           9.01089534710812  -17.55476964121395    0.75683847653409
H           9.46535208401869  -19.78479549708698    0.08693858238688
H           9.21172751681648  -24.50970807959655    0.02943461847628
H           7.58658312596968  -23.00998789766034    4.39092010569613
H           8.01191411018539  -21.29929953927096    4.18134471384100
H           9.18586860766948  -22.42232851897906    4.86395117338176
H          12.52600868105648  -19.69164592891059   -5.04291705465247
H          16.99034280995031  -21.33391188603062   -6.75993329659917
H          17.63071025108506  -21.64064058533378   -5.13533003138102
H          17.47944971810554  -19.98198764678600   -5.74439278768955
H          13.80499826749372  -24.02807973700312   -3.64829697971986
H          12.87085229114976  -27.27124883969124   -1.81879654759592
H          17.76874029364906  -25.56488355540141   -5.36441367152423
H          15.99964189058926  -30.20421287954341   -4.98233536573254
H          19.74788137231366  -25.96170153967533   -5.89947665274867
