98
 SCF done       -205.613758277035          0.000708597359
C          11.13440029645571  -11.54424259076490   -5.27813191367174
C          11.49949238579252  -12.59379504721091   -6.11878242195698
C          12.73329682120830  -13.40697897935394   -5.85037751617621
O          12.79634107972492  -14.57450814127462   -6.10839638352659
O          13.76152787932008  -12.75738187202211   -5.29168793845646
C          10.68309991726719  -12.95344062137064   -7.20366449896489
C          11.04890077636485  -13.99738284842919   -8.09140528682812
N          11.27494782789906  -14.79634680228457   -8.87982471746375
C           9.48907442982688  -12.26821424504768   -7.45437505837364
C           9.13952210908564  -11.23624558379584   -6.61145667335956
C           9.95927026429010  -10.85853338801685   -5.53235246717905
C           9.35100904753614   -9.71032184636336   -4.86010888553694
C          10.05047666076564   -8.77694589246705   -4.13697497147957
C          11.41430543826243   -8.92601200469697   -3.82202179859572
N          12.52733355100395   -9.03807849009412   -3.56293191729162
C           9.51500137447346   -7.52869161611613   -3.75891245103952
N           9.12539024368337   -6.48585858150158   -3.48038980169356
C           8.01204295831883   -9.57585410950907   -5.37797339659599
C           7.91760471330518  -10.39158369915370   -6.61536949220989
O           7.01674237360640  -10.39944515989207   -7.41967210219628
C           6.89391689457179   -8.95271006018835   -4.89623713964456
C           6.59518563094929   -8.53540965760339   -3.58809606936882
C           5.47490234501289   -7.80334359844527   -3.20888414924396
C           5.36931512882761   -7.63016852941193   -1.83378808395531
C           6.41264797444235   -8.24696878880615   -1.13149860700729
S           7.51101251745479   -9.04297485351852   -2.18457969687615
C           6.45582787379395   -8.12512280919470    0.27077881047229
C           5.38848887924747   -7.52624533629835    0.92798948925262
C           4.17282436601377   -7.11110246287838    0.15454690780964
O           4.39986876159462   -6.90743931550942   -1.23778351586500
C           5.58235226517418   -7.44700794241857    2.30277575658383
C           6.79503343095947   -7.97705812019217    2.71150330858547
S           7.71735995557384   -8.58055493065191    1.36069318593913
C           7.29278114653922   -8.08306598207725    4.03196198847026
C           8.52386717002845   -8.56099241200908    4.43744725539504
C           8.68263961989836   -8.54089928658587    5.82563713297095
C           7.55513474468497   -8.06121746114931    6.49255064654789
S           6.30981010721492   -7.59846498554540    5.38952228924581
C           7.52557986180140   -8.11590941867276    7.90254599844715
C           8.68194821706828   -8.47422378854630    8.58382583305700
C           9.96295283807275   -8.63493502796947    7.81943778910026
O           9.77798284380801   -9.00970305553895    6.45664998383640
C           8.48367777086979   -8.59542232890780    9.95516723036370
C           7.17911234422930   -8.33079043426582   10.34048957063457
S           6.18296813307390   -7.92153275226058    8.96594805195063
C           6.62542026381650   -8.38949054848258   11.64271780012333
C           7.26851522548805   -8.72072103066040   12.82284400481550
C           6.41589757913469   -8.70143244887766   13.92868575223845
C           5.10095643121394   -8.36259849061725   13.59477623779372
S           4.93725734466990   -8.04751165937521   11.90240817696322
C           4.11001457273844   -8.42522481348536   14.58718135607443
C           4.48856097690981   -8.67299893837890   15.90823372197138
C           5.94585102913032   -8.72925223586623   16.25998116098100
O           6.80765573721034   -9.04403888147821   15.16753439075467
C           3.40524103507501   -8.77054403482306   16.76144700895408
C           2.17455398120296   -8.63020287104821   16.12171126258717
S           2.40388892415105   -8.32418676046254   14.40919396737068
C           0.92056734441066   -8.62062142680638   16.74882378418114
C          -0.32938437930252   -8.65136153969533   16.18907405806715
C          -1.48760495370166   -8.12096747313856   16.94683848180948
O          -1.53160337842114   -7.84812909639981   18.12347003865512
C          -2.56090381698111   -7.94395713290264   15.93417231969787
C          -2.11560510059105   -8.44451754176270   14.69720984054253
C          -2.91734596626326   -8.33779449081811   13.57424127269155
C          -4.17574466592221   -7.75148040439073   13.69556652250426
C          -4.61964519676098   -7.27125479104334   14.93845851339958
C          -3.80398168427488   -7.36705337017145   16.07161669312460
C          -5.90855706747448   -6.70078651851024   15.09513423704618
N          -6.94046045217745   -6.26336886772687   15.32989300346454
C          -5.05933770823691   -7.55995637711595   12.49701582525972
O          -5.80363369072182   -6.62739702067131   12.39469265254812
O          -4.96279560987396   -8.48576803948025   11.53479067804264
C          -0.79334078289612   -9.04291070166924   14.88292957706053
C          -0.27802686059809  -10.04084707586367   14.09206630457023
C           0.83123808519054  -10.82643850335596   14.46468526059334
N           1.69851758683086  -11.51742744515706   14.76116399950759
C          -0.89591060265195  -10.46255364990866   12.90039199672353
N          -1.39501666960212  -10.81470086492277   11.92771169068410
H          11.73303732453009  -11.30274684418958   -4.41223892120155
H          13.60924256020646  -11.81192596897499   -5.15289732953935
H           8.85728492657584  -12.54441321241374   -8.28477294691803
H           6.07837690080151   -8.86369618514320   -5.60757275123307
H           4.77639010196196   -7.39381140207276   -3.91448301559201
H           3.77743829309358   -6.16251920133920    0.52914185287561
H           3.38909043222230   -7.87958021352063    0.27078752529646
H           4.87449911322848   -7.02582587222825    2.99384429649740
H           9.27575916869969   -8.91442348811077    3.75650468074881
H          10.58695425067891   -9.41901165833127    8.25615214928673
H          10.52766790425692   -7.68684465955087    7.84673489765142
H           9.25635601529613   -8.86632676237872   10.65017042845947
H           8.30844338006300   -8.97594433234033   12.88946973910190
H           6.13627242144006   -9.49716707405748   17.01517661031586
H           6.25943500006073   -7.75474619408928   16.67205303074250
H           3.48105350526422   -8.95909880846992   17.81717274242781
H           0.93754823268964   -8.47362179752882   17.82446045463159
H          -2.55321764599269   -8.65827740932554   12.60926638617581
H          -4.14045973487885   -6.99550118659971   17.02751494557646
H          -4.35049065103238   -9.20764782658484   11.73564934347356
