143
 SCF done       -250.524124057000          0.000388502396
C          -0.95276024191931   -1.74098736271647   -1.92568407854783
C          -0.58113642690829   -0.83057590311677   -2.91533013650840
C          -1.60203309394734   -0.09518250372719   -3.73250295844798
O          -1.37121883194013    0.28292755109304   -4.84601582118980
O          -2.79287557584138    0.11835276142852   -3.16012758870631
C           0.77403003051656   -0.61921050464119   -3.21411318208659
C           1.18968795211406    0.31828017090266   -4.19351804447840
N           1.64676841893681    1.06840369628240   -4.92871705287690
C           1.77032868104824   -1.32098103618079   -2.52539360793179
C           1.38370258382522   -2.21489345275271   -1.55372405115679
C           0.03069506524173   -2.42714525371231   -1.23407102599606
C          -0.04805341175977   -3.42602539041185   -0.16370596045024
C          -1.21220414136047   -3.81712954280259    0.46379962060414
C          -2.47210032226932   -3.26287059990861    0.16999137745693
N          -3.51244680925032   -2.81618886292909   -0.02661244259653
C          -1.30980161121847   -4.77364053639966    1.49131823977288
N          -1.46564187305616   -5.54548029214394    2.33058945536865
C           1.29263485213365   -3.85948657474177    0.11541999477062
C           2.22165889666482   -3.10529411245649   -0.71514020795409
O           3.43886919143789   -3.17585344153769   -0.73374608988496
C           1.63627483981929   -4.83817716186480    1.03580660960414
C           2.86670234460402   -5.34940265822081    1.40023217976996
S           4.41869189174518   -4.89818400094469    0.74604087982944
C           5.25384271413535   -6.08018985671429    1.70448582847618
C           4.37585707099737   -6.76188518933803    2.57856217956484
C           3.02362862812811   -6.36688405334393    2.39191924608855
C           2.00655723959187   -6.94846250350255    3.14890135023469
C           2.31563599693894   -7.89077868767648    4.11119137976544
S           1.13838208205863   -8.66617519360258    5.13905978851032
C          -0.46856463058422   -8.02321302245995    4.53679547040633
C          -1.58091243087869   -8.68205075213667    5.32922436915843
C           3.67088658357904   -8.23310979404064    4.33961554135985
S           4.04361932643009   -9.40409039253415    5.62519539232023
C           4.94002492888258   -8.30229822249156    6.78255587500842
C           4.03391892800479   -7.22426011689062    7.34138311245324
C           4.67878062991042   -7.68686719098833    3.58991595239078
C           6.62997402526748   -6.23727272332080    1.46929189246964
C           7.37942842433705   -7.34847283825800    1.75162388385436
C           8.74334074605880   -7.50742458758070    1.46384915691994
S           9.38200623561924   -9.11381063965812    1.33334853697297
C          10.94305906932510   -8.57586343185755    0.77511884769075
C          10.98825184613359   -7.15896007352056    0.76798127898683
C           9.75755814577490   -6.56280257043396    1.18353717302396
C           9.69323990820799   -5.17825617956217    1.37800573840760
C          10.77069485533199   -4.37297821820798    1.08525863662299
S          10.58121420615077   -2.65163643207141    1.45223534077952
C          12.13088245052629   -2.25314170783075    2.36381001658284
C          11.78571083870962   -1.49410221541929    3.62908822011016
C          11.93516912339783   -4.94485175297271    0.52248258104395
S          13.33037980666989   -3.99608566403896   -0.03494318968078
C          12.53487751767107   -2.93049232384214   -1.30604624670570
C          13.57154048509376   -1.99090002910586   -1.88637847495604
C          12.04817968365408   -6.31287437639371    0.41815606677868
C          11.84261420840455   -9.59293980346319    0.42856695988553
C          13.08732172710026   -9.47248406953729   -0.13399060303045
C          13.96533270974590  -10.50020509889924   -0.50456589667349
S          15.54349022181533   -9.99316999339336   -1.03161697560579
C          16.10935674216420  -11.61594958051471   -1.27160366041616
C          15.07960581316062  -12.53632650223061   -0.95970203490475
C          13.86520618006242  -11.91618976204498   -0.54367165174212
C          12.75677705648387  -12.73290171982469   -0.29155547481711
C          12.85059873673657  -14.10531460158388   -0.37330520156660
S          11.35660089352315  -15.00487384021733   -0.05755789067305
C          11.26099516815129  -16.15623062818907   -1.49087327049850
C           9.86625291920514  -16.10563788715652   -2.08107343367747
C          14.08997787926442  -14.71561769279988   -0.67122269616176
S          14.34460488493872  -16.47458452480368   -0.67610684715122
C          13.96723087837523  -16.86781082538554    1.08096067022510
C          14.13269032407033  -18.35683693046253    1.30357205350904
C          15.17070769886179  -13.93132847261478   -1.00062188150507
C          17.40773795843634  -11.89457643159872   -1.69319563481409
C          18.36161326108584  -10.93783877968882   -1.94696836060705
C          19.66365430158308  -11.25493883877060   -2.33262606512633
C          20.72016639465652  -10.38834240274258   -2.50381293931181
C          21.89988744139559  -10.81950974913438   -3.28419347228881
O          22.15913124209652  -11.93933408050458   -3.66307447529099
C          22.67463412433523   -9.57823049291867   -3.54047112162519
C          22.04621897892959   -8.50365154523810   -2.88608296681499
C          22.54478750862750   -7.22056133586795   -3.03199875084281
C          23.68772356293448   -7.01954310554966   -3.80440601247983
C          24.31871343762960   -8.10296048714764   -4.43634509558274
C          23.80480465111764   -9.39818340575270   -4.30588562929006
C          25.50084258997015   -7.93273308079796   -5.20068648748532
N          26.47435547643899   -7.90907339821030   -5.80328944744129
C          24.23846790202683   -5.64236659616238   -4.03186162530826
O          24.80417162383005   -5.33956840464574   -5.04341092019339
O          24.05783304000967   -4.75771959860137   -3.04290931469169
C          20.90782790087750   -9.01752725766418   -2.11717755110165
C          20.32899275296797   -8.34758456049276   -1.06359430271693
C          19.42356802964712   -8.90627028737491   -0.13989253249587
N          18.71610822854518   -9.30092127421374    0.67420157923367
C          20.69253475397650   -7.03633858493892   -0.70134473470924
N          20.97446747851776   -5.96903124259745   -0.38252628024676
H          -1.99614419293793   -1.93776278137683   -1.73104649894759
H          -2.86697967368517   -0.21683472356230   -2.25582659142748
H           2.81393661825940   -1.16847413370707   -2.75484055091440
H           0.80345951290326   -5.29104368699933    1.55308482639919
H           0.98382562394666   -6.64809829775586    2.99852302361700
H          -0.55162933529644   -8.26421553093371    3.47762312667167
H          -0.48226667106564   -6.94282293813579    4.67580177208100
H          -1.55514874099046   -9.76204583183269    5.20286893964034
H          -2.54144910635764   -8.31126928037235    4.97955233018082
H          -1.48377231434265   -8.45587449312188    6.38864489492132
H           5.79611174386405   -7.87960662429991    6.25755059161619
H           5.29237590363087   -8.97006683332545    7.56719346994994
H           3.69770402771543   -6.55653385762737    6.54987270128678
H           4.57012267776852   -6.63772580324548    8.08474981169082
H           3.16086099141707   -7.67153917671506    7.81042960864797
H           5.70030365530946   -7.95456521432113    3.80397281339704
H           7.08587121011767   -5.43820349897577    0.90088728672862
H           6.87781393008918   -8.23496190651674    2.11482156769030
H           8.82054577778346   -4.72760005124688    1.82071444052459
H          12.76453917750094   -1.65777965678486    1.70774949603859
H          12.62232294622625   -3.19717627101405    2.58805021856066
H          11.26508910033508   -0.56930364770031    3.39112898945687
H          12.69867773458951   -1.25106951131146    4.16856345677060
H          11.14745783020058   -2.09401523988598    4.27408484249747
H          11.72199642718063   -2.38198999845955   -0.83298361822882
H          12.13217345001411   -3.59921280616203   -2.06695864492426
H          13.97917816347973   -1.34350596297141   -1.11309587950555
H          13.11294501179164   -1.37117632700726   -2.65370924497003
H          14.39061213877929   -2.55089928894971   -2.33205589874687
H          12.97968380992357   -6.70354932828451    0.04846356886407
H          11.47219609910745  -10.58428755544742    0.64199596794264
H          13.48128058362141   -8.48406680612005   -0.31359048889480
H          11.79109732514564  -12.31609384778237   -0.06482129046208
H          11.50316367552733  -17.15709434578644   -1.13588089317463
H          12.01054368125227  -15.83294053726856   -2.20978971633251
H           9.12641371526008  -16.39846531621800   -1.33947067128134
H           9.80226169424368  -16.78840086675902   -2.92566729185534
H           9.63161527601454  -15.10067978200211   -2.42491586222181
H          12.94914274067546  -16.54426339977072    1.29216732867236
H          14.66844703039767  -16.29384802431167    1.68684197025112
H          13.44214527277716  -18.91768468844720    0.67761065572898
H          13.93090066890857  -18.59476652689886    2.34565361536552
H          15.14624278440868  -18.66987508931857    1.06315746966737
H          16.09790736867463  -14.41290003204977   -1.26709998948288
H          17.68236710018296  -12.93615411554820   -1.79183259102314
H          18.07845395221349   -9.89930912630586   -1.84888339207023
H          19.87315661013609  -12.28507776552497   -2.60143198360365
H          22.02977513328269   -6.37853526430508   -2.59438394417690
H          24.28132336349216  -10.23385709254216   -4.79539693506149
H          23.60957497152315   -5.11643449003222   -2.26400788471562
