106
 SCF done       -213.630137648616          0.000988617772
C          -2.72338424498068   -4.08837314701647   -3.33591412672659
C          -4.02031109939812   -3.57404893697967   -3.30579891479762
C          -4.80575076956990   -3.72373658170445   -4.58392837539015
O          -4.50045168198272   -4.55484775557126   -5.39200308647985
O          -5.83306591974972   -2.90111114077443   -4.80249945204381
C          -4.52636034828288   -3.01275988367888   -2.11954154123570
C          -5.82830001439756   -2.46893765806767   -2.01714026159716
N          -6.86668652872812   -1.99761059681901   -1.88625199490400
C          -3.74840793957124   -2.98712913652667   -0.95440657420979
C          -2.47447383842119   -3.50438880606552   -1.00492348309611
C          -1.94385679282795   -4.04109430542053   -2.19419996315393
C          -0.57053903732828   -4.47498250866952   -1.94228706917191
C           0.39559448198449   -4.63764854234094   -2.89591735011021
C           0.16156982545953   -4.54685192990716   -4.28444314113590
N           0.03113102613089   -4.46925493694802   -5.42103504695232
C           1.75580733544417   -4.82421824326529   -2.57796504175180
N           2.87116496113130   -4.95361255678117   -2.33899827441700
C          -0.36708226516319   -4.42475907248497   -0.51044264410501
C          -1.48015790907545   -3.64242509833182    0.08539967830855
O          -1.56838906969140   -3.24759389560731    1.22438520837786
C           0.54874560942335   -4.99992822251778    0.31815661549642
C           1.44367990199911   -6.06105457574354    0.05727835224101
C           2.54139075430784   -6.45492974640966    0.78067904224293
C           3.14502633759698   -7.61766257615762    0.16176671477441
N           2.37882965182527   -7.96705209539123   -0.90990628089945
C           1.30966367304248   -7.07628209162932   -1.02632490387672
O           0.42218470395545   -7.20556542608959   -1.83711487933658
C           2.52269197843002   -9.09167328577847   -1.79325178387270
C           4.23033097222532   -7.99874376231501    0.90580525140584
C           4.32157061715197   -6.99817352872029    2.02173926626097
O           5.14727540880792   -6.91588795403651    2.89414959411699
N           3.26623904408797   -6.09720603301833    1.86647803667134
C           3.03996727740716   -4.99352256182691    2.76060075332682
C           5.20802420866513   -9.03106849690548    0.78701983878355
C           5.84938216061505   -9.52076960211284    1.90577329210147
C           6.84516586953222  -10.48829054365138    1.89836401373232
C           7.27164403098426  -11.11829460239562    0.64535726324839
C           6.78101525450524  -10.79296341270690   -0.57225599859029
S           5.59003255141886   -9.58894195408256   -0.83182821267029
C           8.22413385782217  -12.10852275522315    1.01615377619224
C           8.37493310728784  -12.11457645408252    2.40330082592552
C           9.30465090588662  -13.08784778359551    2.83134310317592
C           9.82097246701486  -13.77879640272894    1.78126266056585
S           9.20748015370445  -13.28185651087723    0.24062071522196
C           7.53304286584977  -11.09778829995453    2.98025739067740
C           7.44519110791252  -10.88537104715125    4.36918815231223
C           6.87949315371126   -9.82825937159550    5.02573074140895
C           6.67046250022133   -9.71051402965141    6.41405867773939
C           6.77002601637983  -10.51811278476502    7.52608495765234
C           6.28266757517202   -9.78661645336504    8.67218110336058
N           5.90663926711980   -8.53968087595734    8.29725751687216
C           6.09555919225519   -8.41517719759793    6.91844273676260
O           5.81731404325252   -7.42754027899730    6.29078482819859
C           5.34057982815280   -7.50762113957811    9.12188806187434
C           6.23355838006511  -10.61062068746212    9.77086361579716
C           6.79123723655115  -11.90723399436959    9.30438765051224
O           7.00849072174757  -12.91370694411018    9.94423903312350
N           7.09804429655939  -11.77748431197109    7.95169983258550
C           7.62574975813861  -12.88799082695211    7.20738131259249
C           5.79480442166414  -10.32808980096112   11.08201290534936
C           5.37760074442121  -11.20857978745552   12.03621445888032
C           5.33478450115721  -10.78396571417157   13.45888672231939
O           5.43672038637611   -9.65794157804485   13.88574565752903
C           5.18184467480267  -12.04084329482742   14.23248517957150
C           5.03264391878973  -13.11713712101051   13.33838530528320
C           4.93972332776891  -14.41190055808053   13.82064821778212
C           4.95818324927987  -14.62456844661011   15.19708862582049
C           5.08082713728527  -13.54049483927265   16.08278911841386
C           5.19998523941513  -12.23426665935549   15.59654447838269
C           5.06034671935787  -13.72357712536831   17.48910748778324
N           5.01551286378756  -13.75657428256170   18.63287226429651
C           4.90760189861638  -16.01065562800427   15.77316345532721
O           5.43745311766878  -16.28884988138502   16.81058326531230
O           4.24285856159438  -16.92799146189311   15.06106265326613
C           4.98863824965825  -12.59764626612287   11.97267509035143
C           4.41611460663505  -13.24911900765215   10.91183284234479
C           4.16356254427737  -12.64441972425338    9.66611938386211
N           3.91453799969625  -12.17035115147470    8.65020271968373
C           3.93160964905187  -14.56904174970246   10.99492624349708
N           3.51364084524593  -15.63660131744463   11.05777602739255
H          -2.37406344447151   -4.53153428609922   -4.25579780661559
H          -6.04489580322422   -2.29326642275943   -4.07843695395355
H          -4.14399381014491   -2.57563729201236   -0.03793954681038
H           0.52353162115631   -4.63463058962496    1.34019381671565
H           2.61853665479231  -10.01744136724436   -1.22533485513455
H           3.39129049630997   -8.96785803515354   -2.44216431078687
H           1.62219433294958   -9.13082204484597   -2.40640834216910
H           3.88071778691493   -4.96137903519958    3.45351426625045
H           2.11647487550039   -5.13398200688201    3.32512767647157
H           2.98633696336934   -4.05879948424894    2.20123664525932
H           5.51524633531476   -9.12953738867861    2.85206721872659
H           7.11091220797049  -11.27753653429833   -1.47767809585815
H           9.58232837536760  -13.27337362622518    3.85292414585389
H          10.54348785032056  -14.57080722443835    1.80923808294581
H           7.90074656466926  -11.66258799409538    4.96520939597029
H           6.56385467671405   -8.95030557297158    4.47897018609895
H           4.46847354905870   -7.88560611003173    9.65795534176772
H           5.04222028553706   -6.69301892858519    8.46244913723043
H           6.07489193835107   -7.13740354203914    9.83967537767254
H           7.71255042086377  -13.72026938420093    7.90713064400095
H           8.61685311367739  -12.65530877639840    6.81265414070136
H           6.94939820216358  -13.17034417860066    6.39938390465788
H           5.85290366760586   -9.29420994647517   11.40723038028726
H           4.90463226499912  -15.24616758008243   13.13599958862634
H           5.30499063624548  -11.40022894433788   16.27371766446172
H           3.83676896830982  -16.58883495442020   14.25089898173689
