104
 SCF done       -197.979687602658          0.000956639297
C          -3.15196421078345   -3.30217144001443    3.48709103928978
C          -3.92986066970432   -2.14928365568912    3.57226351153309
C          -4.44968573529814   -1.63525346310777    4.88387196136481
O          -5.44022576793000   -0.96526214199480    4.95348611871713
O          -3.75329037283033   -1.95871900405812    5.97988291267121
C          -4.30172061544124   -1.45517104887836    2.40806270399997
C          -5.07522790001331   -0.26690419545196    2.45607171648519
N          -5.65797364340456    0.71502050041895    2.36532682916059
C          -3.88753257258619   -1.90602827825587    1.15071699150718
C          -3.11402001844031   -3.04387104837710    1.08621159929564
C          -2.73835437862949   -3.75145045169638    2.24236847198858
C          -1.95874967981787   -4.92642205285909    1.85067500446059
C          -1.67639052310022   -5.99183463695232    2.66570645818960
C          -1.88662027921565   -5.98761350139443    4.05864675400253
N          -1.99593799164593   -5.99463840455111    5.20171375167882
C          -1.18486348370215   -7.22983906031327    2.20689023952190
N          -0.81635467365527   -8.26639638308213    1.88109369062232
C          -1.71358222147901   -4.83019673724017    0.43141590907634
C          -2.55566335033260   -3.72610989244831   -0.10573291596008
O          -2.71876702496409   -3.43033165132299   -1.26534087346595
C          -0.87067330142095   -5.46263142930010   -0.43082166613945
C           0.25279190589557   -6.32891510389857   -0.24413395209664
C           1.10877768013053   -6.27897164306362    0.88679569682276
O           0.79590076362061   -5.31892793733383    1.78641094800430
C           1.62541994629958   -4.99624484814962    2.88442537030967
C           2.17414984795674   -7.18772779619471    0.98026041378564
O           2.99954655891693   -7.15483987969952    2.08863070628362
C           4.36144960815177   -6.87226756794706    1.83492121446248
C           2.35900559149899   -8.15758589989309   -0.01157649906657
C           1.55776235829881   -8.14506307305410   -1.15253915140123
C           0.54778222771951   -7.22848073042568   -1.27823180597270
C           3.33294370455645   -9.24441828143710    0.18707561347534
C           4.29495976549409   -9.54474626720402   -0.79796993113924
O           4.29797726959247   -8.69407064367680   -1.85841923298767
C           5.32298107212805   -8.71908896795904   -2.82770248059246
C           5.15988044525619  -10.62634020076872   -0.58782182337145
O           6.10578870412562  -10.97800817896960   -1.54301280197509
C           5.80919713830110  -12.16819317195278   -2.24189035869551
C           5.08026577374035  -11.36705114892511    0.59910070818423
C           4.12657082749871  -11.05069034474334    1.55742036044924
C           3.25545625369863  -10.00381257829289    1.34623964235829
C           6.04635664417748  -12.44386612905290    0.87784757616698
C           5.58317910315223  -13.72575328488256    1.23829144493728
O           4.24089720786481  -13.91165827647087    1.15025693224197
C           3.59000471712864  -14.82924910539965    2.00807654843226
C           6.50699920945367  -14.70429559652382    1.60590252863888
O           6.09187085526575  -15.99598736042583    1.90712152432038
C           6.14250510889197  -16.87288824529873    0.79969897747589
C           7.88308172422601  -14.40098085381844    1.64742801227460
C           8.31945736132268  -13.15045868795139    1.21057479924688
C           7.40933741244895  -12.18571817833863    0.83820082289786
C           8.85211341639894  -15.36808334432635    2.09986516613825
C           8.70925674996080  -16.29289240436809    3.07704834572222
C           9.66413629343628  -17.42964034308187    3.17305237825242
O          10.73805202860949  -17.53229437352416    2.63167890164857
C           8.97363374429819  -18.43503823984629    4.01706031895983
C           7.75774436117961  -17.90133989475594    4.48710529595655
C           6.90043978235431  -18.69319167789036    5.23138028426120
C           7.27088361388825  -20.00030602869825    5.54487339034916
C           8.50535709302878  -20.50830969481801    5.10208652272686
C           9.35874300651004  -19.72217260352285    4.31763691150944
C           8.93815595413703  -21.82316354927737    5.39643170431277
N           9.33613446407548  -22.87375589597537    5.62972491169922
C           6.24466393858137  -20.80290652264181    6.30326584056759
O           5.07928036721680  -20.53859046441214    6.20976265786615
O           6.66625557221767  -21.79292987730996    7.09064919250619
C           7.65353975158820  -16.51023217396048    4.05348949151249
C           6.86749492758026  -15.56178787600589    4.63969287867401
C           6.95616557831398  -14.17748142922775    4.37525674149819
N           7.00726659636308  -13.03704907807050    4.25985055915477
C           5.91143097773915  -15.83916837428585    5.64170057138437
N           5.11104777853427  -16.00038809981395    6.44718181651210
H          -2.89701852676381   -3.85903072653227    4.37649149557756
H          -2.97281715874873   -2.50328063715053    5.80986020945534
H          -4.17128869414569   -1.37828704628496    0.25289040603758
H          -1.08475109031058   -5.23354226012307   -1.47274729813116
H           1.10889976295303   -4.18132258565909    3.39359265924330
H           2.60724459298609   -4.64709772415391    2.55849943558417
H           1.74461908873801   -5.84009381453002    3.56497701214112
H           4.85651938114681   -6.91604531389665    2.80307348337360
H           4.48096258689007   -5.86987480903050    1.40653529544863
H           4.81515967102935   -7.60288925873714    1.16210926983244
H           1.72809051664033   -8.88241644109065   -1.91935594272089
H          -0.08375883123960   -7.23225480213699   -2.15336011371275
H           5.17616160042340   -7.81139204537471   -3.41362881906794
H           5.24014054945833   -9.58694919500928   -3.48621665315022
H           6.31387843665522   -8.70713498831771   -2.37073496419765
H           4.89712175118698  -12.05843924886775   -2.84074460598504
H           5.68408454373614  -13.01613983645017   -1.56245919018183
H           6.65746465248223  -12.35007350426355   -2.89951271116456
H           4.08823117193087  -11.61650435926247    2.47379191075318
H           2.50314631578175   -9.75964214782427    2.07924756858238
H           3.63410675117531  -15.85197296975624    1.62769136911729
H           2.55040815117342  -14.50323201473003    2.03876486415977
H           4.01028298176887  -14.80236961351432    3.01565630137393
H           7.17016734002451  -16.98883000503857    0.43656191933818
H           5.77083089696450  -17.83244541756781    1.15553890880899
H           5.51375756052034  -16.51704174471509   -0.02329170587427
H           9.37524004276123  -12.92930478737667    1.22333406814807
H           7.74663430309746  -11.20710701261113    0.53604181045854
H           9.79981224432476  -15.38589048758734    1.57066203574127
H           5.93690199598934  -18.34337898612749    5.56816497080491
H          10.29506448277598  -20.11930612056936    3.95535922003011
H           7.61824855749415  -21.96910019374940    7.06907189961990
