103
 SCF done       -224.894445396951          0.000781349704
C           5.77038180558961   -0.28612975026481    3.09941702408063
C           5.40611373874251    0.94314081410591    3.64951409186607
C           5.98814487061665    2.15398097537442    2.96350753975151
O           6.33758617381879    2.08810963823052    1.81847243611516
O           6.11925879086585    3.28216744315160    3.65945984605768
C           4.50506816418503    0.99093483411006    4.72756345609849
C           4.10424420966102    2.20573391371408    5.33341808013265
N           3.76818890167701    3.16564822422481    5.86428473481249
C           3.94207778748574   -0.18599321155491    5.23982772796544
C           4.31103347057059   -1.38729305189401    4.67900683125621
C           5.23969555462541   -1.45105797770267    3.62272373774290
C           5.45564207052553   -2.85277627220691    3.26868098588824
C           6.55271719401024   -3.33167408168039    2.60571599227196
C           7.55299502940688   -2.51674842688957    2.03216768239829
N           8.39067387132375   -1.91754094026157    1.52777402804695
C           6.84718913791556   -4.70097116827099    2.45265907097477
N           7.13214188774239   -5.80170276684444    2.29272349415948
C           4.44657756525570   -3.62692602351586    3.95650621372826
C           3.83184887776155   -2.75528834170174    4.99841909303039
O           3.07536256450659   -3.08654525088899    5.87594878214406
C           3.95912164006488   -4.88267266151430    3.76241245073458
C           4.11670055426230   -5.73531464361131    2.63755803213695
C           3.92088540575524   -7.12763463568066    2.76558894889134
C           4.20044792714181   -8.02294944285761    1.67801390852325
N           3.99481746552931   -9.32362441039762    1.85317183722329
C           3.59339894432017   -9.80731629843457    3.00344337698218
C           3.36295942372802   -8.91245534845359    4.09628924660670
N           3.51606058515172   -7.62228309894060    3.94556772360560
C           2.93850530779586   -9.42139184883561    5.35235732238557
N           2.60660013341501   -9.86523225296211    6.35330111861497
C           3.39347195379456  -11.20534420040745    3.10181937223634
N           3.25526575830737  -12.34054097500249    3.16633055792753
C           4.70516787394020   -7.60637326418743    0.40627457851263
C           4.66743509231856   -6.20026400989513    0.22584283601456
C           4.39820290274712   -5.29454903717799    1.32616006488960
N           4.39996630578161   -4.02199897825949    0.93172344338503
S           4.67618917416281   -3.95503379697366   -0.64778947465472
N           4.82759466777204   -5.52386168392247   -0.91096951391480
C           5.14873726025278   -8.60098679124197   -0.50527565223483
S           4.80404069164466  -10.26058739501996   -0.12401281131687
C           5.51583135644567  -10.82248913583545   -1.61457392223059
C           6.03661279748508   -9.75517866372311   -2.35096729021292
C           5.84248880479127   -8.51742932325521   -1.73364749045930
C           6.38973180105126   -7.26215039219460   -2.32673634268358
C           7.39690301256939   -7.54065829780588   -3.43529767992788
C           6.80115537133782   -8.55066261179027   -4.40740983744414
C           7.61985668571171   -8.70490812807754   -5.66388161780553
O           8.53921958605629   -8.01094503637719   -5.98556873892673
C           6.67175056751363   -9.89862560844912   -3.69736139987764
C           5.47900822450270  -12.22796157604339   -1.82603616828129
C           4.45945840643231  -12.97791113828363   -1.16556700344107
C           4.45528386033764  -14.41114158475449   -1.10866638744064
N           3.52430634099446  -15.04438471071981   -0.37481799644942
C           2.62343614247709  -14.35164902509031    0.26972013601777
C           2.55480020869496  -12.92845558455870    0.11660557567873
N           3.45441354862366  -12.30318344861361   -0.60083356953793
C           1.49224139015588  -12.16973485889061    0.66689827797618
N           0.63999238261631  -11.54731342347159    1.11161357509075
C           1.65467556536536  -15.02645479266318    1.05824259618231
N           0.85246495471826  -15.54125802563663    1.69122515261049
C           5.45504455865307  -15.18300600410213   -1.74105170362126
C           6.39561318542364  -14.45548008166367   -2.50101119994427
C           6.41653458329023  -13.00692251018866   -2.54083879291624
N           7.44054639832393  -12.56438183330068   -3.27148367195236
S           8.25355530563625  -13.80028275565913   -3.87588671759768
N           7.37770130461039  -14.98200860552819   -3.23376223279776
C           5.43962232488040  -16.59899835218451   -1.60442782103050
C           6.44517866437244  -17.49871336308838   -1.77131860137070
C           6.10845024697759  -18.93320661528967   -2.01949126371722
O           5.03556627966208  -19.46219757343222   -1.88008147014872
C           7.36465110462918  -19.53707748119409   -2.52832393990798
C           8.39855676622345  -18.58510004727467   -2.45851935263270
C           9.65923318998225  -18.89428897221234   -2.94264560388860
C           9.88712717256607  -20.16110142010760   -3.47452826682181
C           8.85325105874754  -21.11146315531773   -3.52130373472384
C           7.57663838483119  -20.79754856051894   -3.04342629633309
C           9.07391032759923  -22.41817541869201   -4.02820736278717
N           9.16771499080627  -23.50227986468853   -4.38326482697125
C          11.21507315497925  -20.51733969184896   -4.08334164540904
O          11.30411187576510  -21.24551616363505   -5.02883237279863
O          12.29384093541923  -19.96074407025745   -3.52172593129387
C           7.88160895528896  -17.36627400013620   -1.83962695852816
C           8.65045186126519  -16.41263333459225   -1.22601496378011
C           8.12650562202197  -15.34501427847812   -0.47073521438370
N           7.74101105242581  -14.45478535525002    0.14253074372823
C          10.05949946986727  -16.43547529143281   -1.24452107424137
N          11.20718690419328  -16.43108957303119   -1.25800466645983
H           6.44813183697281   -0.28339284444394    2.25980377031250
H           5.76819939906119    3.26402131768916    4.56206591999497
H           3.23250030722016   -0.14773408484275    6.05259441592404
H           3.32923285457301   -5.27477386877844    4.55487369589185
H           6.85303322187077   -6.66380748952151   -1.54066395102116
H           5.56255963280162   -6.67256574148672   -2.72799678452249
H           8.32007409857360   -7.94692302686698   -3.01919250565874
H           7.64390865088014   -6.61515829837443   -3.95506045166013
H           5.80630470866293   -8.21168261913068   -4.72464667691033
H           7.28502123184151   -9.54938431814750   -6.30047289387467
H           7.66673241487150  -10.33064714407363   -3.56675812162665
H           6.09453181965753  -10.60334327244609   -4.29935975343492
H           4.46337824720825  -17.02376827577752   -1.38960077010978
H          10.44054282683222  -18.14888745675252   -2.95570130535861
H           6.77741048785398  -21.52194255002769   -3.08351938287698
H          12.10625084048280  -19.41445439305065   -2.74571834674115
