87
 SCF done       -211.626386569649          0.000404654287
C           0.26952575281785    1.16442782844952    0.12456148746196
C          -0.41418587668415    0.48089116634821    1.12511070982359
C          -0.36395779947974   -0.95899820393407    1.22545962713735
N          -1.12640186229055   -1.59083574711448    2.13506161686706
C          -1.81519005060512   -0.88551629684245    2.98787601547574
C          -1.77802194855888    0.55709300435538    2.95895002240671
N          -1.12462368575877    1.19108828480259    2.02771395023870
C          -2.49224392195265    1.29157327049536    3.94117258713052
N          -3.07828564422498    1.84498743935644    4.75412694313320
C          -2.61810658990839   -1.55498812341844    3.94608141540181
N          -3.25839977498657   -2.06998831688858    4.74356172478282
C           0.42776632294848   -1.72553396567484    0.34927134377626
C           1.12574281783362   -1.02772738946470   -0.64453088510723
C           1.03008499135665    0.41536892888057   -0.76164718130779
N           1.77839621826853    0.87549920430801   -1.77573447226298
S           2.51753923856416   -0.35336990723982   -2.47207705781224
N           1.96374085186013   -1.53844207860309   -1.55676453328994
C           0.49295726152063   -3.16805109107774    0.47839893272854
C           0.41404600326925   -4.00904865725159   -0.64737169199603
C           0.48859904158098   -5.44404705523700   -0.52717714164445
N           0.33219752974878   -6.20898025493082   -1.61995796572724
C           0.22387471808693   -5.64354513393056   -2.79094707379815
C           0.18276164175696   -4.21140309356337   -2.91417426347958
N           0.22505028551433   -3.45083657715218   -1.85524142161958
C           0.05010743423923   -3.60196243481619   -4.18749365405276
N          -0.03171253251347   -3.12665385002361   -5.22612114235231
C           0.10269773755805   -6.46775031677594   -3.93802419284843
N           0.02999205285721   -7.11826969255533   -4.87772058558961
C           0.66630807547059   -6.07454628964229    0.72072502023551
C           0.73170943133451   -5.23471798736227    1.84246263444957
C           0.64094333619287   -3.79553177831475    1.72219400637545
N           0.78546333906019   -3.19309734608943    2.90981488274271
S           0.98578262097668   -4.30566472124779    4.03671440380059
N           0.93998640190896   -5.60712490913110    3.11191251019505
C           0.77397119272578   -7.51259487797481    0.83386305181319
C           0.11773003299899   -8.20713077363185    1.86983252583180
C           0.24636834669101   -9.63378838286821    2.02218312338849
N          -0.22315462306371  -10.21819030285718    3.13581790846694
C          -0.91958617491217   -9.51998517813380    3.98798888664152
C          -1.24958096094401   -8.14632164085855    3.70474608089118
N          -0.70353620465774   -7.53446958781906    2.69211363651336
C          -2.15356149888676   -7.44466052747760    4.54084467195323
N          -2.87436164445285   -6.90734110018494    5.25005732817733
C          -1.36880259174731  -10.14171146187013    5.17932084912491
N          -1.75955723453515  -10.63577994487379    6.13589349775779
C           0.91325911455760  -10.42562222037442    1.06603841385142
C           1.52507612534581   -9.73989508393455    0.00754905336887
C           1.48956289610579   -8.29484891471144   -0.08489392024900
N           2.20091621563728   -7.85577678372873   -1.13156687072391
S           2.77441229534042   -9.11014175471639   -1.93743196669146
N           2.19610954707103  -10.27909017314445   -1.01819809034705
C           0.96829998165682  -11.86337037144975    1.21529299761458
C           2.14031011675997  -12.59549467695147    0.95197875918448
C           2.17683691971411  -14.02949798454866    1.08530323475472
N           3.32619633867887  -14.68526606892059    0.84394549291154
C           4.37002564884228  -14.03243753813550    0.40501332981414
C           4.32701672331761  -12.60199227494004    0.27379862393347
N           3.25423252907586  -11.93362110756317    0.59323372913889
C           5.47441594648035  -11.88259338001390   -0.14708428990097
N           6.40056995763197  -11.30985776248171   -0.50070185372130
C           5.55480614042192  -14.75907443909892    0.12977194325115
N           6.50904926363947  -15.35053676608414   -0.09629008189902
C           1.04905298887552  -14.77378102422939    1.48413195979887
C          -0.12216219349039  -14.04310488548920    1.73874654304135
C          -0.15836534709536  -12.60245820672790    1.61146664534028
N          -1.38759735460276  -12.12199547787917    1.83312881242467
S          -2.36715034271311  -13.33715195234377    2.17691691197352
N          -1.32517295811420  -14.53955643859208    2.04370236546651
C           1.09697679026255  -16.21634198434545    1.57590041657056
C           1.82860235348356  -16.98356236324553    0.64773266791141
C           1.92808913443536  -18.41893151880607    0.76215109497178
N           2.72529067207799  -19.10441472078463   -0.08731243774025
C           3.37402627488798  -18.45993429403585   -1.01264864769146
C           3.18317299285105  -17.04250674338336   -1.20165840666821
N           2.42648727863626  -16.36160962387628   -0.38399055703430
C           3.78677195723451  -16.36156674598183   -2.28737519249279
N           4.27561981140291  -15.80263443097744   -3.15939551210435
C           4.24173812122837  -19.16710238444603   -1.88571468341176
N           4.94330462465042  -19.70643906770172   -2.61147225277319
C           1.25435544360574  -19.11293607570726    1.75989223114692
C           0.51271399871729  -18.37218740443299    2.67139190653569
C           0.44493562337398  -16.92467141115633    2.59687814454669
N          -0.24826219332771  -16.41362542819420    3.61942432821343
S          -0.78253111398588  -17.60853435603430    4.53362723914058
N          -0.16488129367499  -18.84072393265276    3.72908190991030
H           0.22079230470211    2.23859192562929    0.06542708570548
H           1.34851460931347  -20.18255828399639    1.84125079108983
