120
 SCF done       -232.728494207418          0.000792450423
C          12.38734973669342   -1.27962493742039   -4.58923511767477
C          12.98760490241776   -1.25357283767924   -5.84903114888065
C          13.67820510888808    0.03560273165236   -6.20962155181531
O          14.04460923769714    0.79137048125980   -5.35391608404001
O          13.85736038964217    0.32432071870459   -7.50043076016115
C          12.96703426821100   -2.40047639331679   -6.66209599041016
C          13.55604139547574   -2.44414100748068   -7.94724637960074
N          14.00362345758952   -2.52590545394021   -9.00112266893486
C          12.36544524138693   -3.58187102228200   -6.20888720272938
C          11.78146200714852   -3.58323218679018   -4.96350837243633
C          11.76914892243789   -2.43746292355868   -4.15036742299941
C          11.06886125213876   -2.76138458739268   -2.90826094080559
C          10.68188519066229   -1.84259125305696   -1.96867359841947
C          10.94066469354716   -0.45708778875318   -2.06196796955627
N          11.09853525809960    0.67908602762738   -2.07654138283273
C           9.91435389057935   -2.11949836764507   -0.81629330359729
N           9.27932151781289   -2.25433063709495    0.13114929343376
C          10.77599629660730   -4.18351310809657   -2.92315390090129
C          11.12505997448900   -4.71005542906808   -4.25518666540431
O          10.95614465779623   -5.81859448108659   -4.71806241202045
C          10.36826196277755   -4.88019876497448   -1.81017527951667
C          10.00568784697592   -6.22325327228909   -1.63717366602061
S           9.73113488178735   -6.75829300626791    0.01300126735825
C           9.33058247139241   -8.35376322291463   -0.51433476136175
C           9.39484250114516   -8.44767059359249   -1.90255169300083
C           9.77060771857910   -7.27128767290619   -2.52273441506210
C           9.00246804913897   -9.38094276613815    0.40369035017636
C           8.59577304919270  -10.67533166046900    0.12903989090047
C           8.36541721872879  -11.43624203477060    1.26899580440993
C           8.59468564687528  -10.74786167234021    2.44660271783712
S           9.09574796649563   -9.11545006226851    2.12317050013344
C           8.48669774880196  -11.22466574817611    3.77580734747206
S           7.96234345287608  -12.84680183105580    4.12044329023684
C           8.15858121798182  -12.60034648272393    5.83521203250379
C           8.59901897115062  -11.31317485150165    6.09110907986654
C           8.77846157658171  -10.54766210059220    4.94531742101879
C           7.88332657370432  -13.66620022640845    6.73035221622187
C           8.13212153926119  -13.62292266630139    8.06287152982127
C           7.89580012006876  -14.66382157971625    9.00698226054543
C           7.22004201073195  -15.83694356858734    8.76133973005046
C           7.01866761341045  -16.85259744939257    9.69344610862005
C           7.55520448071445  -16.74997981644344   11.05440387252176
C           8.23222548485886  -15.68178022975015   11.52988044783075
S           8.57610033617093  -14.29253293533122   10.59049041230719
C           7.18716612171298  -17.96180304423626   11.69521601895475
C           6.46000462729323  -18.77044096157017   10.81732766590386
C           6.08527896756411  -19.98730141338053   11.43390388831514
C           6.52272429142786  -20.06145703798914   12.71799901941237
S           7.40478254991371  -18.67069555971043   13.24396151819191
C           6.33547674460883  -18.08137118219656    9.55490313718973
C           5.64766043091399  -18.49149602883393    8.39127877008268
C           4.94855004543874  -19.64923040755620    8.24684342165583
C           4.22592545521603  -20.02541418770614    7.09011003077790
S           3.36250758893188  -21.54102211055662    7.09193267763388
C           2.76723393475814  -21.26517163892943    5.47953693048718
C           3.23352920672959  -20.05848327029423    4.98944505756575
C           4.04441121982504  -19.36980720480284    5.88233842430592
C           1.91890779691098  -22.20141114408216    4.84467009756608
C           1.47176291015155  -23.41444609441583    5.33878729135581
C           0.63773449782148  -24.09682385610040    4.46301009143980
C           0.41919297319808  -23.42500909607097    3.27191461062442
S           1.28232034902605  -21.91010722354675    3.25257751661953
C          -0.37833178420536  -23.83308861751331    2.17741997300078
S          -0.56376053763418  -22.84722236277838    0.76499707807765
C          -1.61613816821670  -24.02263191197683    0.01541147946236
C          -1.79058712605637  -25.11628729863145    0.85566690293330
C          -1.10577522657584  -25.01231188763840    2.05296694505506
C          -2.11589102346934  -23.78054356892098   -1.27518808534852
C          -2.98696691787378  -24.58898393360520   -1.95319663166667
C          -3.49937520016369  -24.32625407313162   -3.23405485619194
C          -3.06439109766841  -23.46387161521907   -4.21244345743572
C          -4.02573725815427  -23.05124320609265   -5.26388753556054
O          -5.11962023488587  -23.52000573343455   -5.47925899801713
C          -3.37830972124785  -21.91440661076987   -5.96607306176395
C          -2.08288870861404  -21.73866046984554   -5.44965201829732
C          -1.29661411549505  -20.69076944505087   -5.89671811645024
C          -1.79649873297539  -19.84053778819164   -6.88150794755914
C          -3.08408876016217  -20.03796543352430   -7.40572999977781
C          -3.88687717702676  -21.08601757838661   -6.94149066221031
C          -3.60267235759807  -19.20713299326112   -8.43108351307470
N          -4.09356447847677  -18.61624827325571   -9.28037590820095
C          -1.00196511993172  -18.65997590215524   -7.35771911915120
O          -1.52051051257228  -17.63770019181019   -7.70517251049090
O           0.32938066829606  -18.80512668297894   -7.36621750190633
C          -1.81729724847261  -22.79271881184169   -4.46585688724807
C          -0.55159092912955  -23.19441402553355   -4.10615075323428
C          -0.26922987525149  -24.33697580979007   -3.33458480975784
N           0.01761457362963  -25.26723755159980   -2.72594614937287
C           0.61310978742833  -22.55124682893368   -4.56471978378412
N           1.57420009200615  -22.04141607655755   -4.93432281114278
H          12.44176878319644   -0.38517199049083   -3.98857366535761
H          13.58017838247039   -0.36295104447771   -8.12431490927245
H          12.36610527908013   -4.47127598318947   -6.82091939828871
H          10.34432078987110   -4.31211787921375   -0.88715084064389
H           9.17701535129501   -9.35656101871059   -2.43286856636986
H           9.88036733260489   -7.15965860924560   -3.58547883069265
H           8.46884050190090  -11.04843495708962   -0.87058082195064
H           8.04562822452997  -12.46310942304567    1.25651604763151
H           8.77801877715686  -10.94052165404383    7.08282913032538
H           9.11614845264969   -9.52611189767858    4.94652316474153
H           7.47609270580503  -14.56039509276836    6.28041703191757
H           8.58450493334828  -12.73062034197767    8.47381073318673
H           6.81609569543492  -15.96712557866216    7.76778428719027
H           8.60119456334871  -15.63050394338953   12.54200444256640
H           5.52715853186440  -20.78294489602843   10.97650203557201
H           6.38050440529952  -20.86741798314801   13.41120142642636
H           5.67413183860945  -17.80351909133553    7.55746202777548
H           4.90949285473576  -20.35135753240599    9.06406239550725
H           2.97819986350749  -19.70486664106626    4.00563217198139
H           4.48797891690998  -18.41618049497722    5.66141810948157
H           1.75475279147474  -23.77668873724947    6.31123022703298
H           0.19937191551148  -25.05288232384985    4.68297355427431
H          -2.39479682744764  -25.96391949855064    0.58928022861651
H          -1.12312316500236  -25.76608801397145    2.81863494628719
H          -1.81060185367925  -22.84611680333572   -1.72844865631979
H          -3.38273803065963  -25.45900353151245   -1.44955586836776
H          -4.43290103816140  -24.82269226033384   -3.48319872168539
H          -0.32914521396180  -20.50208031610731   -5.45581195524760
H          -4.88004727464832  -21.23841325733407   -7.33564315647489
H           0.63624214471698  -19.68070638432639   -7.09108688765494
