132
 SCF done       -255.239941525960          0.000490523812
C          -1.02933625644563   -5.95234821122627   -1.37581700955998
C          -1.85281446183614   -5.91179091918452   -0.24618416698478
C          -3.29725141213226   -5.60648817626159   -0.37105674417544
O          -3.99287168693163   -5.21683002159021    0.53117756896891
O          -3.76246718631192   -5.81131816563142   -1.60903601006233
C          -1.32326290830413   -6.12157857315992    1.03238093994244
C          -2.11583494449155   -6.06417138409780    2.20098001934326
N          -2.63980489543666   -6.08170623399131    3.22105766439348
C           0.02651094592622   -6.46594531350971    1.18849322519337
C           0.80196107904783   -6.58812453096206    0.06198525469087
C           0.30312459477282   -6.26418273685385   -1.21262709335741
C           1.44444223815333   -6.26991297241613   -2.14072038256992
C           1.39117103491934   -5.73501969897675   -3.42011633619898
C           0.20367906855239   -5.38076422398846   -4.07621127310335
N          -0.72556846120577   -5.08342570934554   -4.68623965310270
C           2.51198028658809   -5.40391508976855   -4.19215588091719
N           3.39838298859103   -5.07046741787976   -4.84805956972592
C           2.55241638965265   -6.77507651489113   -1.43254363395651
C           2.22052400797236   -7.02690010447712   -0.07391274115683
O           2.88309881104098   -7.54495784560623    0.83211722115334
C           3.90484458274884   -6.96211722777760   -2.05952287537738
C           4.91803555002068   -7.87514304980435   -1.44916459530853
C           5.33997916410955   -8.76976673914710   -2.46638491733579
C           4.60428797293862   -8.43597088117278   -3.62664437387383
O           3.77577737587997   -7.45377060164376   -3.40092133503599
C           4.70371741731474   -8.92429818310021   -4.97153985157016
C           5.80468678319402   -9.54686950283408   -5.50868708500171
S           5.60786846130794   -9.91382294223413   -7.16103787734552
C           4.03247231450081   -9.22563184211365   -7.16890183514534
C           3.67197981318852   -8.72888723436426   -5.95480504731317
C           2.30681661105452   -8.20858484234934   -5.67279818829876
O           1.71111560992168   -8.54974997794064   -4.66513679698675
C           1.71387525590444   -7.32938587257061   -6.68725944678004
C           0.32223328988794   -7.27082223265950   -6.79046306692936
C          -0.26848405107790   -6.42138668253659   -7.70447647249582
C           0.51930902429013   -5.60912606162299   -8.50428516219615
C           1.90180214147660   -5.65355608824105   -8.39787083456248
C           2.50288460352624   -6.51242912274888   -7.49969194538374
C           6.31797908771079   -9.73472029667591   -2.19430524141572
C           6.90029473929760   -9.73371688155390   -0.95604680714370
C           6.51452232737970   -8.82196718860406    0.04857510838857
C           5.50141684920979   -7.88610866458531   -0.20872890994662
C           7.16876720298743   -8.85191586338604    1.33709098474622
C           6.50201751027924   -8.61768964704287    2.51017756065811
C           7.07814791401103   -8.67960796926418    3.78188561413186
C           8.50971678915112   -8.98869416771623    3.94501307651812
C           9.35692598601207   -9.23385474023894    2.92280637239258
S           8.88370898623485   -9.23574206465528    1.27682110210869
C           8.72987899661252   -9.04648678229140    5.34711131850886
C           7.51819022217020   -8.84851778433267    6.01457902342131
C           7.66084296634726   -8.94727327431810    7.41723748766361
C           8.94590368322269   -9.20435533591833    7.77028170590255
S          10.03284163961448   -9.34099352716968    6.42573828547586
C           6.48588571266526   -8.59629727620965    5.05242485535069
C           5.11568166901280   -8.41516548537975    5.41316584125099
C           4.16419754534152   -7.78928051349922    4.70027160965221
C           2.75786414317494   -7.87042620963133    5.05209738825733
C           2.26444750029744   -7.87680630943800    6.36802564444825
C           3.07013226492555   -7.46660255531373    7.54581839723243
O           2.92882192818815   -7.98497890390419    8.63466033748890
C           4.05075040247009   -6.37731340972169    7.33395549390594
C           5.20402343223311   -6.31550754220243    8.06272666529925
S           6.24584079595289   -5.05688104719683    7.55532800104418
C           5.11655501797593   -4.57154162910528    6.35672981288187
C           3.98938195008185   -5.33598125651539    6.35245623676777
C           2.84393503483478   -5.02362840151227    5.46006630635517
O           3.01447873749983   -4.72622379891847    4.29525167003074
C           1.50458925770556   -5.06209493724359    6.08826902813386
C           0.39073989597256   -5.20100134903218    5.26071456539257
C          -0.87922801794422   -5.27456364185624    5.79688738316184
C          -1.04942414729092   -5.18663322174322    7.16973638657449
C           0.04718853984316   -5.00635568968063    7.99860839669808
C           1.32064557292480   -4.94433228822129    7.46589214296553
C           0.93986110472620   -8.24776041688966    6.60112215900036
C           0.10306634343142   -8.58711512055761    5.56359628262819
C           0.57182020085443   -8.55328062197674    4.24268278848846
C           1.88225661618402   -8.14147330556956    4.00487588226703
C          -0.31154229675695   -8.92409797425758    3.16652347354109
C          -0.02438166959687   -9.39972007619315    1.92954177643270
C          -1.09141521464912   -9.31906268210057    0.89076777635172
O          -2.26464679128472   -9.09316840905898    1.06506139765245
C          -0.39916000972570   -9.53565082919951   -0.39729819288991
C           0.95086208180391   -9.85279753448864   -0.15762715013374
C           1.77216046909338  -10.18094151258655   -1.22472520498323
C           1.23051614909385  -10.22286901763466   -2.50578444425602
C          -0.10355551416057   -9.85148212140063   -2.74030639357364
C          -0.92627855524039   -9.49253081223052   -1.67058122520338
C          -0.65460139604788   -9.81745132378434   -4.04332823740689
N          -1.17272077747546   -9.75752155758954   -5.06360905882814
C           2.09845786189635  -10.73825885729826   -3.59703249801040
O           3.30619231781486  -10.74929577500200   -3.55574793032616
O           1.40701466615692  -11.32915850641338   -4.57249602111036
C           1.19450348038235   -9.86475712680684    1.28347589233086
C           2.29427822201526  -10.41923446796742    1.87784125014391
C           2.38663001403742  -10.73600933505898    3.25046602475790
N           2.50676426403585  -11.10246636417557    4.33109000131259
C           3.47893714547660  -10.76634609150494    1.19706459312766
N           4.49599404110844  -11.02023121687122    0.72818585938291
H          -1.45484867303667   -5.73629537686574   -2.34204140219293
H          -4.70699260017214   -5.59477830350172   -1.64958733008291
H           0.44440348455236   -6.61507455518588    2.17154941341775
H           4.35396270950000   -5.95759038499139   -2.17774126681850
H           6.73469520048019   -9.76503093235919   -5.02472961397571
H           3.44562373805712   -9.24410486321240   -8.06624769547081
H          -0.27752861082899   -7.91078428155699   -6.16034686154261
H          -1.34361127462584   -6.38213165293138   -7.77969920518158
H           0.05686262466246   -4.93174034556225   -9.20675361067473
H           2.51198368497193   -5.00762918939922   -9.01116408082700
H           3.57664547747961   -6.51658960318130   -7.39079487739726
H           6.58458693289727  -10.47112471507852   -2.93310332045807
H           7.65264871306294  -10.47079619682991   -0.72011414454154
H           5.19598311071352   -7.18348305513183    0.54815169036720
H           5.43825792214221   -8.45145139562924    2.42956674811939
H          10.39855374657796   -9.46849233145045    3.07626465573403
H           6.85798284814926   -8.85074369365517    8.12449960937437
H           9.34419113369840   -9.32972656655826    8.75807413128489
H           4.83858237465632   -8.86347552823627    6.36060093640855
H           4.38729905205674   -7.30338250265363    3.76239331570772
H           5.49174387931475   -6.96899810557939    8.86223289093889
H           5.32181686921353   -3.72215728944342    5.73565185046786
H           0.54605673608192   -5.25701621572821    4.19373368087816
H          -1.73023775108708   -5.40076550528029    5.14471738701035
H          -2.04055394917971   -5.24608102889358    7.59361180009973
H          -0.08977481568886   -4.91431414028441    9.06579900672861
H           2.16551128041826   -4.78347814504017    8.11908083510246
H           0.58461714732728   -8.25416821733355    7.62061095877540
H          -0.91156412979368   -8.89673995546697    5.75957728881684
H           2.24780044405756   -8.03957055498857    2.99218245471691
H          -1.36785945435189   -8.73699959952735    3.34236759731520
H           2.81291789684428  -10.43528934178990   -1.09651227325913
H          -1.95709592231543   -9.21411795800006   -1.83100317718920
H           2.00066414302422  -11.68250482467586   -5.25284871425738
