104
 SCF done       -198.251717229649          0.000425267670
C           2.90829893984451    0.76018482681412   -6.15722962803954
C           3.47461120448268    0.32517900780532   -7.35493114306087
C           3.75267980072933    1.36155402873528   -8.38853619352426
O           3.84484940599553    2.53565312161076   -8.14797940416273
O           3.87333041830058    0.85565007509488   -9.61829795886061
C           3.77852552614889   -1.03064548333574   -7.55709594882365
C           4.38652723972662   -1.51171825683040   -8.74223930020853
N           4.89333063422396   -1.98830958874951   -9.65280192170890
C           3.51335285530711   -1.96490084183181   -6.54966923719112
C           2.93572425624356   -1.52349276420381   -5.38045743258466
C           2.62482943417484   -0.16795798771307   -5.17013374975858
C           2.02369170785419   -0.02893358706003   -3.84517094730872
C           1.46007602659093    1.11317152347357   -3.34339768925159
C           1.40377277861052    2.34319837226734   -4.03525440797561
N           1.29967209059498    3.36161763188129   -4.55266153303798
C           0.79916014634537    1.20236339005265   -2.09908038535441
N           0.22610550593336    1.34020228164918   -1.11366853865492
C           2.01646785456987   -1.34011535749048   -3.22331777894880
C           2.57099769293344   -2.31355769954452   -4.17877340214342
O           2.78584731801728   -3.49804452958026   -4.01679648686855
C           1.73520382621378   -1.59522974759583   -1.90720492956020
C           1.47696443937506   -2.84498560846926   -1.30137582315622
C           0.83528902782368   -3.96247986415318   -1.84279218392281
C           0.23214845688849   -4.19835650112486   -3.17094427035625
N           0.69573947730674   -4.86382341143243   -0.84639929879578
C           1.21483462020742   -4.39890379632222    0.33210745602206
C           1.23617133672572   -5.26389354941808    1.53923070595979
C           1.69227104765528   -3.12590849185973    0.10244128260240
C           2.35823566261856   -2.24004405294742    1.01385799980787
C           2.21322858818043   -2.25798773554613    2.35426494394270
C           2.91079034481284   -1.40303961343907    3.25719299552101
C           3.94850637760549   -0.52289461336324    3.02142804449558
C           4.38346348982272    0.10635293879332    4.19089295676200
C           3.66205357334506   -0.28633957898424    5.32782256131727
S           2.46033842015469   -1.43815564124978    4.95787381004114
C           4.18794314198650    0.39917847479907    6.45822359502079
C           5.25177615430742    1.20241710025873    6.03423781204251
C           5.38645767191471    1.08115991050642    4.59272295355214
C           6.23071159190068    1.78761628267252    3.78391912295639
C           7.07234417988896    2.79255718707202    4.29623315646533
N           7.72700191473079    3.63326052116011    4.72431918700155
C           6.28135891439652    1.57463073982663    2.39022774836838
N           6.32573540200148    1.37811854270179    1.26158991832379
C           5.88742666968682    1.87109580926480    7.08619675798997
C           5.29482263461400    1.63183333970890    8.30719530672266
S           3.93955479431788    0.51276112762837    8.14204177850200
C           5.64470025117538    2.15354958419432    9.59601598536930
C           5.13113680515316    1.74170399405850   10.81477698811994
C           4.09467357864352    0.73714200612502   11.16112944541506
N           5.76297814041292    2.45235315068958   11.79193880265723
C           6.68036629908981    3.29999219890686   11.27121109889212
C           7.42928936206672    4.25321747243378   12.12356573792393
C           6.64327960273164    3.15912678032024    9.88698293649108
C           7.39839669210684    3.93182619548312    8.95921300617399
C           8.65027907256445    4.41369880759328    9.17234340952702
C           9.40550343783471    5.12289699026151    8.20888646445078
C           8.99311541335918    5.79390860017555    7.09229930007057
C           9.97051202483783    6.03916044649944    5.99893386068261
O          11.17223920032105    5.93591536181704    6.06013758329013
C           9.14706440992913    6.39762786641196    4.81838936612345
C           7.80152090249314    6.50257052177486    5.21194640878750
C           6.81970541180820    6.75366849253366    4.26963201740351
C           7.18900039885752    6.91858139269647    2.93662560270456
C           8.53760015216848    6.82619717148768    2.55542925756994
C           9.52935074694421    6.56232234666493    3.50596607925100
C           8.94283348504314    7.02432034816165    1.21111240990395
N           9.37429805711539    7.20982458443098    0.16659981935465
C           6.15576354940093    7.12659802596082    1.86874184267709
O           6.29332574760210    6.71087388572472    0.75440321111217
O           5.05474663441093    7.79842638578293    2.23267198689384
C           7.71215917648565    6.29067066627697    6.65622680524675
C           6.68310873294413    6.74569589476642    7.44463616939955
C           6.71224343033318    6.71819218947704    8.85052257479380
N           6.71145376702116    6.73587920514215    9.99878533016637
C           5.53569293708078    7.37012620380180    6.92074927945153
N           4.59317910692528    7.88191705540643    6.50950320468953
H           2.71406258603256    1.81494199133501   -6.04029716044307
H           4.06793876693618    1.55746666468925  -10.25974525433735
H           3.75552526073914   -3.00819338420736   -6.68627930795738
H           1.71555827719658   -0.75020993990858   -1.22950199986773
H           0.97895722458443   -4.61710127512072   -3.84964858658679
H          -0.11039158782798   -3.26076002762386   -3.60452647886297
H          -0.60445491432955   -4.89054216863197   -3.09532182220921
H           0.26782175388834   -5.77012319737954   -0.95804101951925
H           1.21462886437435   -6.31328568937986    1.25005767238033
H           0.37345605040384   -5.07103339791881    2.17873899444131
H           2.13820749488956   -5.07837525169933    2.11808272506469
H           3.00831846010055   -1.50280893729060    0.56490574677820
H           1.50645413465616   -2.93446866305666    2.81093592306023
H           4.37629915655959   -0.36125580846603    2.04968177041667
H           6.77295141867000    2.46058582576830    6.95441734362939
H           3.12089366614453    1.03015097296043   10.76771078681424
H           4.01513837700159    0.63998320493867   12.24186287108569
H           4.33963621388825   -0.23847329195210   10.74164223111749
H           5.55512060352513    2.37191889180270   12.77523986379566
H           8.44031986849931    3.89820454018071   12.32541864126148
H           6.92033767524791    4.38596447955933   13.07622060319246
H           7.49648929587607    5.21677679941093   11.62061984006595
H           6.94280477199018    4.10626791804034    7.99481234749924
H           9.17361539724537    4.13475833669706   10.07428247625912
H          10.48488347718278    5.05384579715642    8.30767144044920
H           5.77717621216812    6.76419970660392    4.55254050129716
H          10.56558105756824    6.48131976107489    3.21487406839779
H           5.06597131452544    8.11240438658734    3.14781929745991
