110
 SCF done       -215.625637062643          0.004995283811
C           9.43147245324335   -5.38068024744393   -1.86281754996226
C           9.83236553732541   -4.05293368260944   -2.01063143941558
C          11.22079169227473   -3.64385006187678   -1.66915522287645
O          11.59320081067755   -2.50219706100783   -1.59994076964522
O          12.02551978589486   -4.68587118110946   -1.44013130253501
C           8.93376260436918   -3.07582225600687   -2.46861114863419
C           9.31270377874285   -1.72136099056219   -2.64720503217770
N           9.50043618262503   -0.60946910217094   -2.85159783964987
C           7.61716746456790   -3.42374636916929   -2.79358360791796
C           7.23763069352479   -4.74031510570033   -2.65756173901526
C           8.13251466846906   -5.72255593815246   -2.18889179727006
C           7.42356983827246   -7.00045653076388   -2.12321341810940
C           7.74784216413250   -8.04442373491406   -1.29157591208856
C           8.94466369382238   -8.11564560143609   -0.55301491460544
N           9.91317752064623   -8.21902594309349    0.05461153581205
C           6.83886285627958   -9.08047391731298   -0.99511557346758
N           6.08504376924277   -9.89315604271859   -0.69402065058563
C           6.17552121266097   -6.82971352152925   -2.82267887287816
C           5.93345551062635   -5.37760004340291   -2.96676323697440
O           4.89780554461812   -4.82961627644928   -3.27827826038289
C           5.29679103005055   -7.72214630954914   -3.37943317747704
C           5.45532236877790   -9.08604628672595   -3.70198246994501
C           4.33326418668243   -9.84993981665882   -3.98837937660305
C           4.31828661330952  -11.21344730956843   -4.21818552046313
C           5.58061561335614  -11.95304132593235   -4.35166072764387
C           6.80544791226340  -11.39960907889590   -4.20869438973788
S           7.08025540133431   -9.75821950041654   -3.80621623609845
C           5.21060589828650  -13.28575339032305   -4.67765065195786
C           3.81749182264425  -13.38573424170988   -4.73814077363799
C           3.39120295106474  -14.69804737745605   -5.04469173579280
C           4.44561991199667  -15.53686261861891   -5.21049123591872
S           5.99093084268297  -14.77855484280784   -4.99868990557870
C           3.23401808947409  -12.11094237262776   -4.43336923213989
C           1.84137506931418  -11.88857816837215   -4.38321672608610
C           1.24033563793770  -10.79404723358563   -3.83683824631931
C          -0.12994874612134  -10.44887788309122   -3.86262213124244
C          -0.51588622071085   -9.19726346783921   -3.41723777685309
C          -1.80675798746234   -8.70140502090980   -3.43555625960599
C          -2.93736379063319   -9.52594242068713   -3.86132863246887
C          -2.80319944567833  -10.78261001954933   -4.34124502398277
S          -1.29605132192954  -11.59066846697515   -4.51355311845652
C          -4.08335702930737   -8.70373242173759   -3.67204164579232
C          -3.70271993779344   -7.44538650392947   -3.19088951574537
C          -4.81879135225879   -6.60115403212430   -2.99786249500623
C          -5.98179651856183   -7.22175791751889   -3.32681494586376
S          -5.78056322858941   -8.84557651699019   -3.88701436842226
C          -2.27021269284432   -7.41594277465707   -3.05816272508093
C          -1.40416998171619   -6.36072625782050   -2.72786687876978
C          -1.71443589822898   -5.09003687443582   -2.34344039705551
C          -0.73998665234172   -4.08529143867703   -2.12044214618187
C          -1.08783066249786   -2.83175630173625   -1.64378227944412
C          -0.19091470447373   -1.80837591124374   -1.38150725354174
C           1.25500593229929   -2.00319919978920   -1.50711272377990
C           1.82439818853384   -3.12714230099797   -2.00077127253134
S           0.92730825937105   -4.49116705406827   -2.50519922345689
C           1.85062859272090   -0.81614181156154   -0.99383971817650
C           0.85612627091376    0.06086085637783   -0.56210756524365
C           1.39128995763811    1.25691351613412   -0.03746806674622
C           2.75000656501505    1.25382538245202   -0.08042091753471
S           3.43068985698951   -0.18584788449033   -0.75730710972103
C          -0.43444349499977   -0.51927098338196   -0.83284263129205
C          -1.65337713060932    0.11225319251514   -0.56396488518939
C          -2.86593235768433   -0.12569847563904   -1.16949289660672
C          -4.05337312109042    0.52327049482422   -0.81291682827889
C          -4.35465704149477    1.11751821614182    0.39573624800278
C          -5.39560356543488    2.15616614559413    0.47952003394866
O          -6.18466386008267    2.48934072742914   -0.37824662646872
C          -5.24374541352915    2.74987880954281    1.83560597906135
C          -4.24508967196507    2.04972268630302    2.53788048790207
C          -3.86277113570700    2.46979389824728    3.79781072096225
C          -4.51099236107743    3.55819447493357    4.38489602777744
C          -5.54334635712971    4.21624781634798    3.69478637073400
C          -5.90103015780740    3.81862739361625    2.39821674911831
C          -6.25932758164334    5.30388388530425    4.24640815120671
N          -6.88683600915726    6.17060759814398    4.66398776612671
C          -3.98361849212975    3.98078394505487    5.72804914099948
O          -2.84533335863499    3.75230449897224    6.03589401023301
O          -4.81655754568466    4.59512977504992    6.57559801551137
C          -3.79486698797631    0.93039452899948    1.70713491550514
C          -3.21447194135858   -0.21435970964142    2.20390416299875
C          -3.06428109720996   -1.39003266188237    1.44747194242921
N          -2.97880489475802   -2.39060679606423    0.88833832051882
C          -2.81859068827815   -0.37883970048055    3.54450938454908
N          -2.47456364813085   -0.56807696603351    4.62303560953107
H          10.14280831376063   -6.10986033536710   -1.51014870005931
H          12.91398365507190   -4.37756422622579   -1.20183907125928
H           6.92148487944769   -2.67750063831265   -3.14706702381191
H           4.34589312532068   -7.28399654823055   -3.66811666121615
H           3.40384179121901   -9.30167356734372   -3.99632823547094
H           7.71407898390462  -11.96806132718679   -4.32978582267959
H           2.36623784649207  -15.00807472570513   -5.13674776233208
H           4.42202720134928  -16.58246202950261   -5.44770266322120
H           1.21916104823609  -12.66577666205938   -4.81018974148080
H           1.85305789566746  -10.07844715494263   -3.31187565070916
H           0.27357306147394   -8.56188656602093   -3.03964329775853
H          -3.64312345411707  -11.37345326700521   -4.67021077408218
H          -4.78144817396970   -5.59282619445656   -2.63064772766992
H          -6.97521237694268   -6.82090757714938   -3.27565250363100
H          -0.35048930878891   -6.59361482398522   -2.81800893222584
H          -2.74093807287678   -4.80128324624589   -2.17927096426469
H          -2.12917087408480   -2.67670594292499   -1.40245537489450
H           2.88974689810542   -3.25061288774935   -2.12016675600104
H           0.81297987658806    2.07472917360997    0.35222186631762
H           3.41781866902777    2.02523829828988    0.25003339723324
H          -1.60366415878419    0.93900728441764    0.13679801264325
H          -2.89274417121416   -0.74893828368986   -2.05178744614870
H          -4.81266231747546    0.63683118315353   -1.57923066185311
H          -3.06614509493053    1.99546219024747    4.34995518122839
H          -6.67492962103271    4.34188355589085    1.85702675377235
H          -5.69982628380920    4.78734017519390    6.22394973110146
