95
 SCF done       -197.016440370254          0.000809049907
C           4.49377512757727   -1.23192433024810    2.05719939674313
C           4.63856562151435   -1.07892103759891    3.43884755254537
C           4.76747801426896    0.34480813245533    3.91468312188266
O           4.99176250786280    1.23101422999682    3.13790840659800
O           4.60973651536643    0.60609157122792    5.21385203234320
C           4.67729883939062   -2.21404166964237    4.26713137950172
C           4.82874628953757   -2.15195283443200    5.67153089915928
N           4.93826730054337   -2.16700582136983    6.81459098015527
C           4.56979191117459   -3.49989200426286    3.71885646804253
C           4.42060739152073   -3.62315150686853    2.35780715765570
C           4.37649745944518   -2.49801605364288    1.51427469191761
C           4.21278815884910   -2.95934649208889    0.13357231691493
C           4.18939447883360   -2.15153701273616   -0.97293150853189
C           4.23678192107356   -0.74063092341059   -0.93564391628478
N           4.25041918886370    0.40516466580719   -0.98956025769872
C           4.12635072390258   -2.60710624352112   -2.30732546175028
N           4.09498224100572   -2.90058390240318   -3.41702552862443
C           4.14933183655254   -4.40456307040680    0.16299842284195
C           4.25082736234416   -4.85122960905867    1.54934798751881
O           4.11656540852474   -5.98463574965839    1.98324315704684
C           3.87155973625792   -5.21984436398398   -0.91576196504312
C           3.98979046473457   -6.60602575382860   -1.01231529666015
C           4.70949926459215   -7.57791898201052   -0.31583811717425
C           4.60157140700534   -8.89041387658748   -0.84175644465401
C           5.44548638488938   -9.78062723313362   -0.12195563126910
C           6.17094584786240   -9.19517987720964    0.86549891211864
S           5.81708030212074   -7.48727820447579    0.99641479965902
C           7.13687274856029   -9.84597746574306    1.78508430281585
F           5.56213292515145  -11.09241852646126   -0.40599968524444
C           3.74465186607175   -8.96936294023318   -1.94649667343087
S           3.16473609117621   -7.38147149461625   -2.36194049670767
C           3.28550429168437  -10.08091200591433   -2.67524312145439
C           2.44834776815515  -10.07542641819889   -3.78380204490716
C           2.08390289444364  -11.35425504860634   -4.27357615978798
C           1.27700534094509  -11.21102993664277   -5.44077507599738
C           1.02087615147200   -9.92912818424510   -5.80427799315426
S           1.77053480699880   -8.78316527910492   -4.71108642798973
C           0.22788028639152   -9.45812488022550   -6.96605489531376
F           0.82227453227959  -12.24860931709476   -6.16581262617955
C           2.64294678165112  -12.39076772200373   -3.52519456089946
S           3.64189505321399  -11.73614881282423   -2.25086256228140
C           2.47744986132150  -13.80250556036866   -3.59319143363729
C           3.37831086903924  -14.65521669468495   -2.98537689852407
C           3.24637103347538  -16.03434479800253   -2.92454754687957
C           2.07643422865890  -16.71440285710718   -3.48083674688848
C           1.07946840687841  -16.07795662758328   -4.13814711255467
S           1.03144482254195  -14.38920764600341   -4.39651737603490
C           2.26490413916145  -18.09022688445581   -3.18412593740485
C           3.47060066796298  -18.27394726463014   -2.49751036423743
C           3.70121691936130  -19.63954942790589   -2.21468831625285
C           2.69120366344270  -20.42675646626467   -2.66920394303254
S           1.42338892673986  -19.55968631738337   -3.46410825308330
C           4.10711283420871  -16.99172902148233   -2.33197694927737
C           5.36215863938366  -16.69151215388398   -1.77395242453395
C           6.14338978967254  -17.55097402040436   -1.05120957595115
C           7.44467184007843  -17.28033994248322   -0.59126541376218
C           8.38850887159911  -16.44739484903490   -1.14664861686625
C           9.69903708720146  -16.21198813776422   -0.57941866274198
C          10.03985802818496  -16.33747534800289    0.74431005451533
C          11.32548582034380  -16.07045363957434    1.25449389158656
N          12.35527548878146  -15.86702885323487    1.72014210293252
C           9.13644657649611  -16.69223588066990    1.76728964914213
N           8.44750016753885  -16.94108974958037    2.65205542066621
C          10.57048812209696  -15.72808208326830   -1.64279548919743
C           9.79220771300041  -15.55954112315898   -2.81288062906477
C           8.38692932152464  -15.92715131441189   -2.53210598901513
O           7.46556015097700  -15.84377073153280   -3.31870410791777
C          10.32738665015967  -15.12720415929401   -4.00118237424546
C          11.69924132624518  -14.85393407195551   -4.03714692668888
C          12.46887040737231  -15.02652177092071   -2.86266501271732
C          11.92541574605410  -15.45834765216990   -1.65832154018173
S          14.14236194460823  -14.64399322135738   -3.13341707599390
C          13.78981284684751  -14.26297246990170   -4.79802397157935
C          12.48712916089316  -14.41262179349570   -5.13556443079749
Br         15.17551305641543  -13.70802047414760   -5.93455384747203
H           4.47705715016606   -0.33583274036663    1.45625673220576
H           4.47265343956570   -0.16598487264547    5.78377182505140
H           4.60397384508938   -4.37286754517281    4.35306106399629
H           3.48735935035919   -4.74579191737697   -1.81010128308820
H           7.22801909862075  -10.90208313132313    1.54208751477698
H           6.80233418004700   -9.74781081996464    2.81719818558639
H           8.11580609074272   -9.37500300403075    1.70572116060843
H          -0.13477262575699  -10.31060434300970   -7.53545600377455
H           0.83851316970549   -8.82960018823028   -7.61328072553349
H          -0.62250751319919   -8.86488178165543   -6.63156413554657
H           4.24888073012380  -14.19842138938300   -2.53367270394103
H           0.23336984980984  -16.60043232195077   -4.55605657186255
H           4.56386229370319  -20.03899639188372   -1.71490821779307
H           2.60654273583028  -21.49295973239419   -2.58934395758240
H           5.71514581122189  -15.68213178709699   -1.91650492737650
H           5.72167260311017  -18.49540499266648   -0.73746430396418
H           7.76700951637591  -17.87298207538233    0.25816287322312
H           9.70981165647034  -15.00874134361927   -4.87776047842468
H          12.55271207307273  -15.58256972236340   -0.79131600248890
H          12.09646817256803  -14.22297090792886   -6.11867973109917
