124
 SCF done       -226.031316918063          0.000522004416
C          11.19625457568786    6.40901953602783    3.77444257519474
C          11.03852812427026    7.77453850480080    3.99611779473090
C          12.21122521601247    8.70079112144721    4.13094122538948
O          12.13758544064706    9.73556575370937    4.73071637180888
O          13.35437974536694    8.31949178209207    3.54766837097060
C           9.75394372361019    8.32717983347279    4.15026698274957
C           9.55060279405452    9.71488911559742    4.35603770280199
N           9.25087513270583   10.81313988813142    4.48618391172208
C           8.61779469504993    7.51461487453031    4.07001763912876
C           8.79053619055362    6.16870600340450    3.83853322148536
C          10.07184680587248    5.60065426649252    3.69088075676451
C           9.93335117913724    4.16094744980868    3.50191867149299
C          10.92735472033753    3.23514002332132    3.72763141957400
C          12.28084751450776    3.57512535873614    3.90116033245527
N          13.39864243705426    3.81961527201598    4.00684604797179
C          10.68593396935867    1.86361663241721    3.91967822228289
N          10.54080545659871    0.75146715784170    4.16854876818302
C           8.52881174637687    3.89064393427515    3.30947326380822
C           7.76715148562447    5.10724254395064    3.69838456689915
O           6.56869931355434    5.21282647811815    3.81416985551232
C           7.83863473557122    2.87643530450962    2.71222805778118
C           8.25959280611222    1.85983549744191    1.82894851061181
S           9.84931410105463    1.80239039867755    1.10209840110300
C           9.38031687397830    0.51442925997852    0.08490407053022
C           8.08491636775048    0.12536958167014    0.27979264527306
C           7.43419558326762    0.89022570834042    1.26774162353689
C           5.99110012832068    0.70380198166677    1.61079641214861
C           5.39697831229247   -0.58887192303138    1.03991690902697
C           5.88229962695816   -0.79258108407335   -0.41790274192649
O           5.44702804240990    0.34333504955162   -1.13160948146975
C           5.45827607622658    0.21331577543515   -2.53161214314695
C           7.40443998394793   -0.98714991536524   -0.44945714245556
N           5.66758859880926   -1.73747554867005    1.87241370026975
C           6.86518150264786   -1.96170979197838    2.47221258998059
C           7.30305131110418   -3.15250726574278    2.93100325996114
C           8.56004085399201   -3.32516421142217    3.59324782359031
C           8.99599736035326   -4.56130340139567    4.00413154118108
C          10.21750243239058   -4.81471356014753    4.63531195445773
C          11.09195492938218   -3.70233723703023    5.02859398947886
C          10.86814277200152   -2.40834428804960    4.71210912411721
S           9.51823568946046   -1.86951802189814    3.81428389858870
C          12.15918911920119   -4.29496034366116    5.76030447553609
C          11.98128464810171   -5.67585152712296    5.80594930983590
C          13.01913999354431   -6.32183644608014    6.51421137298638
C          13.93537155955985   -5.43259066422277    6.97844148550820
S          13.58415411990955   -3.78497461167882    6.57453156326184
C          10.78710299836984   -6.02446727347385    5.07914456628074
C          10.39160383260217   -7.37170901431181    4.87080478520979
C           9.52739459529949   -7.81953489477105    3.92705321810947
C           9.13756973942520   -9.16871910504686    3.68465206275026
S           8.39394302623518   -9.49965721154397    2.13044837473216
C           8.25515793035787  -11.17492339969761    2.48017732671988
C           8.74214589335171  -11.46769939354143    3.71349235611531
C           9.22959842889716  -10.33569193343377    4.41168185946203
C           9.73134198279794  -10.56267000251809    5.80067125276087
C           8.77121471609842  -11.46364881147237    6.59823115712004
C           8.13299238610003  -12.63272003598524    5.77870225872284
O           6.75882697120561  -12.41860784829663    5.54972332915416
C           5.91187573214006  -12.65184599994588    6.64397415325671
C           8.77706409647787  -12.79200028086055    4.39627602537934
N           9.47411723485566  -11.96911438921923    7.75335683425312
C           8.91265518051277  -12.29587769448527    8.91301887223316
C           9.59517604187867  -12.85081740205948    9.96404007998778
C           9.04406659900972  -13.23082687257922   11.19054044614158
C           7.82369816778388  -12.97638828707735   11.78232170530731
C           7.38955578864962  -13.90069630946535   12.85268815863684
O           8.04363319320736  -14.77459678312458   13.37779936169008
C           5.96888638684073  -13.56332994440117   13.11815640375797
C           5.60983273283004  -12.45145456832677   12.33575582773524
C           4.31464869582009  -11.96860334029367   12.37953962935119
C           3.39028168267353  -12.59454463024774   13.21585309806917
C           3.76207296714327  -13.69295365287221   14.00750182450808
C           5.07034524511714  -14.18697716196311   13.95387095445875
C           2.84616303542540  -14.35521250552045   14.86309563244316
N           2.20194829533602  -14.98190159388872   15.57379096963095
C           1.99352849531773  -12.09461320265394   13.29641347614510
O           1.18625487201551  -12.45937010140712   14.11036117066434
O           1.71447933167605  -11.18128938134827   12.35914792600138
C           6.79153243343658  -11.99662338494972   11.59260381686858
C           6.90357820727874  -10.74068349491287   11.03816650500821
C           8.10145897920521  -10.20947761550302   10.53299215606776
N           9.05574640651771   -9.74465236169005   10.09192778435199
C           5.84941155245560   -9.81132464790640   10.94689150270433
N           5.03109194477070   -9.01751631032647   10.80687717961592
H          12.18048502978907    5.97185291368130    3.69161593530610
H          13.30206000548576    7.46761334405973    3.09354432206950
H           7.63012337567743    7.93355283546683    4.18877736196747
H           6.76173943230371    2.95157997376476    2.83328367390444
H          10.08947716279251    0.10800521314975   -0.60931291390367
H           5.43211883648577    1.53695144414347    1.17565276336820
H           5.83736509477617    0.72033431950147    2.69143318557816
H           4.30776001817316   -0.46958291387758    1.00343351891717
H           5.40226541710531   -1.69613206909237   -0.83477921126082
H           4.96655358417547    1.10276134589235   -2.91999845917554
H           4.90508698252284   -0.67798665635483   -2.85112034932035
H           6.47550560500956    0.16393011634124   -2.93430677031015
H           7.75939319689069   -1.03570217697151   -1.48006701411996
H           7.64766853147936   -1.94210688927920    0.02560857392789
H           5.11576877417315   -2.55830433453012    1.66641960752308
H           7.47486492622772   -1.08337527746392    2.61617070747954
H           6.70157686613350   -4.04158169036243    2.79768021614726
H           8.31650573543704   -5.38618305167320    3.84612800959918
H          11.53277395202121   -1.60656392905831    4.99198225495577
H          13.08977117532404   -7.38199313913662    6.67888845123519
H          14.82063845555731   -5.63793978786359    7.54811044523156
H          10.90688334727298   -8.08923712922028    5.49382394582922
H           9.13119102927990   -7.11637542247065    3.20920333563913
H           7.82545588238512  -11.83711379835784    1.75614718117034
H           9.84748799748230   -9.62644192251003    6.34445625817032
H          10.71054980870745  -11.05323898749911    5.74290674652236
H           7.94104028765423  -10.83937234658552    6.94707157367104
H           8.26439825100521  -13.56454277947853    6.35730629511680
H           4.89713928245471  -12.62165523742489    6.25234650474398
H           6.00977002035855  -11.88291346662920    7.42084278342807
H           6.10104301844787  -13.63587444007154    7.09157840883763
H           8.22300780304015  -13.53872994557388    3.82921161312292
H           9.80942201918803  -13.13070504141582    4.51604751317135
H          10.47479256700447  -12.08419943298646    7.66864837696282
H           7.84040886779770  -12.16775614346736    8.96375236182759
H          10.64363588277105  -13.07316184848595    9.81671007481463
H           9.64914127553283  -13.92001272740178   11.77369461786811
H           3.99307231282386  -11.12906338478330   11.78557000493124
H           5.36763668644736  -15.03437844730736   14.55281476250012
H           0.80173790880147  -10.86897049350085   12.46071038015427
