112
 SCF done       -221.101859694311          0.000430444440
C           7.30090114014617   -0.46148986330845    0.41093898071997
C           8.63111120147287   -0.10919542527150    0.62964748899995
C           9.09292327531230    1.31912887833861    0.55333441041427
O          10.01747396436460    1.71740651754166    1.20177057950094
O           8.41930002575920    2.12695711476698   -0.27154145994784
C           9.57599134099857   -1.08358186428095    0.99237644208171
C          10.94253603086816   -0.76167361728391    1.19720295494549
N          12.07016152490962   -0.62834563632073    1.34537307196320
C           9.19594563738343   -2.42173419163901    1.13496524340346
C           7.87618033083312   -2.75152489260309    0.91843470697782
C           6.92136635445665   -1.78757291608133    0.54906757021718
C           5.62683094957122   -2.44605486042647    0.38184353125810
C           4.44818179671427   -1.82601138962528    0.05467844750261
C           4.34959133135284   -0.45337498404550   -0.25092385099401
N           4.24304472412664    0.65480040431027   -0.53074334333501
C           3.19609717074557   -2.47190281241807   -0.02521256487531
N           2.14630098682367   -2.93135989419092   -0.09180016137141
C           5.81312758758456   -3.85278117129017    0.66090706298410
C           7.22786568967402   -4.07874559769117    1.03065224834655
O           7.77712287034240   -5.12815102517763    1.29024809451850
C           4.92831180084723   -4.85632939202802    0.36116973274174
C           5.06825022263977   -6.22155219838638    0.68761856205147
S           4.54940951243106   -7.38237693225015   -0.50958139592939
C           5.13391588781080   -8.70332703446509    0.44878807340136
C           5.62909915338390   -8.25267562011273    1.67574968583456
C           5.56878377938769   -6.86100259952539    1.82057786541529
C           5.82123597024597   -6.16603975899226    3.12111116340102
C           7.04869514893934   -6.72640897419741    3.80776406554665
S           6.57143575535578   -8.40942771970630    4.28022377165618
O           7.67725234161992   -9.11741769104057    4.85863123479419
O           5.35232721325864   -8.33678766128734    5.03692534034756
C           6.20072411335599   -9.19870901264395    2.67398798153577
C           5.09118147559642  -10.03681627412222   -0.02188819778642
C           4.53884595682880  -10.39140664705904   -1.21118140804863
C           4.48275747802902  -11.69887262484522   -1.75809964855948
C           3.89460619804522  -11.92161869582979   -2.98779624182809
C           3.79729605341737  -13.15310773100487   -3.62229423418869
C           4.23559200772200  -14.37942122261987   -2.94161676947313
C           4.85243881263390  -14.39887113158999   -1.73873433894862
S           5.20316893905502  -12.99778764410959   -0.81826804453719
C           3.86602656038191  -15.44788089880331   -3.80268966770746
C           3.24751288327627  -14.93490072682255   -4.94568660312337
C           2.86407062911718  -15.95333017895406   -5.84571951840779
C           3.19012925000248  -17.18376742513617   -5.37100001533430
S           3.97463360591180  -17.16052854943046   -3.82706891914811
C           3.22242288679623  -13.49976798388731   -4.86796680762829
C           2.71747478909039  -12.68222792442761   -5.90335842040821
C           2.96916498981840  -11.35905303652549   -6.10195123691688
C           2.41489648657094  -10.59784690680954   -7.15601618015246
S           1.28158264149495  -11.28584015920198   -8.27385117027926
C           1.14874201146022   -9.78432015919814   -9.14501895865453
C           1.98926525487657   -8.80863519370556   -8.59601160251408
C           2.67859193127580   -9.25872520070679   -7.46373514235046
C           3.64538390702614   -8.45129141652347   -6.64562912222086
C           3.50241459657382   -6.96151013602350   -6.86904297035106
S           3.72501684683127   -6.71537696698753   -8.65605289129791
O           3.67019610923225   -5.31627021822736   -8.96833969559904
O           4.87388594201713   -7.46385193802215   -9.07211116158928
C           2.19615180831929   -7.49414489557615   -9.25793540741948
C           0.27270291015270   -9.74078080216528  -10.24852429922560
C          -0.28720047482811   -8.63677305476249  -10.82415249944104
C          -1.16647688853234   -8.68975201354802  -11.92580820731214
C          -1.28044062232914   -9.65313496028324  -12.89250009832746
C          -2.53291666840752   -9.74220508107544  -13.68657298360940
O          -3.43352562186085   -8.93829818687317  -13.72054787044321
C          -2.45810830354521  -11.04987884883749  -14.38544885571882
C          -1.20705244802586  -11.63844864576492  -14.12736019406895
C          -0.91917957727021  -12.89906285069558  -14.62274689176249
C          -1.87403874740114  -13.55642130706915  -15.39557941866914
C          -3.11324733026477  -12.95205017052257  -15.66303696751617
C          -3.41073163537779  -11.68401802269120  -15.15202638379768
C          -4.08757035457100  -13.58869289615561  -16.47364085728382
N          -4.91848828256338  -14.00563361744301  -17.14198050526462
C          -1.63317521321152  -14.95091651786782  -15.89920808857148
O          -2.51797773201182  -15.75020190338713  -16.00765256386870
O          -0.36828078064792  -15.26024690233411  -16.20762888987473
C          -0.40348818958981  -10.71169262041948  -13.32755916931980
C           0.96984392162888  -10.73263227150977  -13.27048510707941
C           1.73568646540806   -9.70398973312025  -12.69269873232618
N           2.38420341735262   -8.86480070640050  -12.25302358274150
C           1.74524944863134  -11.73970248325508  -13.87570983632906
N           2.38604016191691  -12.55856808565371  -14.36309761424547
H           6.56867578418299    0.29419448109091    0.16981006769728
H           7.70098509586877    1.69868636079951   -0.75697368297530
H           9.91669431924053   -3.17541053209728    1.41340657310456
H           4.08824775152454   -4.61893435801238   -0.28107234953370
H           4.96510718116818   -6.36596721582820    3.77718620966002
H           5.89259432063866   -5.08896414945842    2.98191738358414
H           7.29562786858856   -6.18860198916447    4.71857510766131
H           7.91155206769356   -6.77980841890945    3.15153344764594
H           5.51470623945337  -10.01332139823007    2.90195233130723
H           7.14891700062057   -9.61196740222981    2.33120715759614
H           5.53215853310723  -10.79148286458895    0.61362466387440
H           4.09698818238851   -9.61178823763338   -1.81997439093399
H           3.45441491892312  -11.05773571933519   -3.46400262536534
H           5.17927667220794  -15.31459276910895   -1.27183943793919
H           2.37522007679005  -15.79200667800473   -6.78896486460498
H           3.01907023114194  -18.13350739029571   -5.83880999466260
H           2.10165194749547  -13.18978735747775   -6.63699901905721
H           3.67187165076104  -10.84575078554717   -5.46523212115597
H           4.66149091865186   -8.73589444612034   -6.93792516944786
H           3.51603162863535   -8.68408637928449   -5.58500402910266
H           4.26650229567767   -6.39525423883104   -6.34445408329871
H           2.51762327139306   -6.57966487664934   -6.61514886905956
H           2.28870766091815   -7.62271059212972  -10.33801710498356
H           1.41624850485832   -6.76718812694433   -9.03736423865305
H          -0.04472748100828  -10.71187305277176  -10.61218260625529
H          -0.15364581773374   -7.66919936321392  -10.36669930589210
H          -1.90178283085748   -7.89443651530957  -11.99826109011461
H           0.01103175271720  -13.38834126104448  -14.37475301675963
H          -4.36334139957163  -11.21698941995800  -15.35044772863998
H           0.25825931580276  -14.52944991440050  -16.10956875650387
