112
 SCF done       -224.105822863118          0.000994741937
C          -0.19174091837101   -0.71864026836650    1.73461021236161
C          -0.61471145603282   -0.37040623862034    3.01883971541580
C          -1.47275612244132    0.86557895263602    3.10199668561669
O          -2.02603898974243    1.29159669588140    2.12731528904034
O          -1.58630888492829    1.48797746012060    4.27722399910234
C          -0.26435118196045   -1.17746765606357    4.11558363527513
C          -0.66482690876396   -0.89986708881819    5.44321705454687
N          -0.94947864377842   -0.71800327617340    6.54041782894701
C           0.50869395091637   -2.33152360947701    3.93031207732312
C           0.91728073880770   -2.65173007760505    2.65695188005866
C           0.58111193086239   -1.85201548227529    1.54975335549898
C           1.15114643466144   -2.45795228439433    0.34621510811744
C           0.99350741262170   -1.99353807985477   -0.93353783321372
C           0.32750189598588   -0.79478402934143   -1.27106601874453
N          -0.17779054700670    0.17488672300970   -1.61783312998552
C           1.46262891944437   -2.64716498812596   -2.09373625946998
N           1.78458568105499   -3.12777932609823   -3.08595566776096
C           1.83720373297924   -3.66846271887707    0.74597413984599
C           1.74424197258025   -3.80233669572198    2.21525764397548
O           2.31051429605245   -4.58853964751085    2.94202363820456
C           2.60064273222421   -4.45755385918884   -0.06982973045877
C           3.09096490962800   -5.75430329949258    0.21320482793897
C           4.26963008725048   -6.20427713213438   -0.43832545709247
C           4.82923451034564   -7.49726939057832   -0.21552851673625
N           6.05009698447055   -7.76403143809311   -0.72242756916935
C           6.66385248494962   -6.89765638696883   -1.48216549953276
C           6.00985384839857   -5.67942375799282   -1.84923037700001
N           4.87408207835292   -5.35499794116389   -1.29505708466883
C           6.59907522373777   -4.74412269553251   -2.84405602880082
C           8.04401719238300   -7.22295474034852   -1.92109429383538
C           4.15554466071986   -8.47383084161899    0.57602295113002
C           2.97843516756983   -8.02543396347057    1.21482555188090
C           2.44224526117848   -6.69974209655855    1.03311585084670
N           1.26846777515610   -6.55776459373568    1.64799751928613
S           0.90832796616239   -7.90848935681890    2.42483762566860
N           2.19254354018131   -8.77371884678570    1.99096368351118
C           4.57199897785910   -9.83586394193411    0.68521778121766
C           5.46503905599145  -10.38817172809759   -0.21762512889236
C           5.86862350011428  -11.70737763504932   -0.24543470032187
C           5.50963177941904  -12.63354174658796    0.82239861193132
C           4.63581515430213  -12.31217078444012    1.80786030434043
S           3.82994823415911  -10.80360143074684    1.94436255522093
C           6.24482462332259  -13.82374945983673    0.55629235608274
C           6.99499694563154  -13.66420004705922   -0.61393985577588
C           7.73689685545077  -14.82279873638652   -0.93378980474113
C           7.54042558156845  -15.80677158622646   -0.01854443026290
S           6.44864636018353  -15.37592578680756    1.25725257506580
C           6.74294966468295  -12.36211781916268   -1.16610177687725
C           7.24409511279436  -11.90207010670210   -2.39191398343255
C           6.75000017901046  -10.83071577649299   -3.09488192652291
C           7.24599831385416  -10.33140738033910   -4.31147156025729
C           6.58035000304549   -9.22479446152538   -4.92527187069256
C           6.99673971367883   -8.66820377465649   -6.16873078388235
N           6.23545002019819   -7.72253747193212   -6.75335494505846
C           5.19091002088035   -7.24297276190243   -6.12801476671990
C           4.86108466894457   -7.69957917967175   -4.81855449390516
N           5.52788030356780   -8.68724957722328   -4.27878813616378
C           3.72640020373534   -7.11692970757713   -4.04816994465266
C           4.37371880933992   -6.21510773520451   -6.83126444415926
C           8.16428980065762   -9.12580723149282   -6.84159182029854
C           8.80944898374870  -10.24170118948966   -6.25162881875515
C           8.37451169570420  -10.82940105599559   -5.01021695583633
N           9.15639915461321  -11.84671619462129   -4.64851797885190
S          10.31154939349471  -12.04258765424469   -5.75046705397205
N           9.88816479465851  -10.85156821077940   -6.73885887141655
C           8.66112666352025   -8.62721850009068   -8.06206238307876
C           8.43408731416877   -7.44256133729381   -8.71548506931872
C           8.71468781509878   -7.36610537156497  -10.17159634787597
O           9.30068288790754   -8.17511360856334  -10.85104655024098
C           8.08513811544903   -6.09753620356443  -10.62336082437799
C           7.57096254727420   -5.41910861122410   -9.50412345818450
C           6.87904034224436   -4.23174529468200   -9.67186006393370
C           6.72447088238063   -3.71323789694669  -10.95684671280780
C           7.26049841783231   -4.38853513106223  -12.06518736695146
C           7.94831198641061   -5.59630234341433  -11.89801291894846
C           7.15228729878571   -3.86574068208022  -13.37883063486706
N           7.15510184542879   -3.51408830922737  -14.46889368626947
C           5.93430931846867   -2.46111117743789  -11.20376827171540
O           5.32495332321608   -2.28197369425092  -12.21910619051542
O           5.93393285972042   -1.55229238036564  -10.22053811972218
C           7.91109990497404   -6.17473033001665   -8.29779732280492
C           7.94302424645612   -5.63629934993167   -7.03198489690134
C           8.48673812442295   -6.28726830951638   -5.91468070965710
N           8.92127846751967   -6.75389252351058   -4.95788545633241
C           7.47104615164650   -4.35030833346239   -6.71858491796992
N           7.07535113951160   -3.31494859160517   -6.41362095219070
H          -0.49095996226394   -0.07879522375321    0.91880808478036
H          -1.14856564726981    1.05446033994290    5.02511099857431
H           0.77362456430575   -2.95699554352861    4.76951511405193
H           2.91865057970902   -4.06893540825507   -1.02884429476579
H           6.83366808891097   -5.27284824474702   -3.76664044920265
H           7.53108191105373   -4.32828728480973   -2.46357408143956
H           5.90583369761515   -3.93353352493724   -3.04997625111509
H           8.12290338954991   -7.21596297563008   -3.00804667312901
H           8.32886861635242   -8.20088323285572   -1.54311696723794
H           8.74025725068788   -6.47404874843467   -1.54560289005395
H           5.88641187286294   -9.69690281129940   -0.92974757062838
H           4.35506915465585  -13.01652401886058    2.57554912786666
H           8.38176220967163  -14.92256306339146   -1.78749248462855
H           7.97431183661041  -16.78740875512492   -0.00452921430672
H           8.05077108151344  -12.47048646388365   -2.83597261173996
H           5.86316546115671  -10.32093739235966   -2.75246587126296
H           3.86163593054090   -6.04555509523050   -3.90923491082615
H           3.65713813379197   -7.60150366443840   -3.07771813794768
H           2.79053226362134   -7.26470006555322   -4.58550866280814
H           4.43668495896668   -5.26167798752171   -6.30642333149461
H           3.32652992441470   -6.51053890668258   -6.85523871806095
H           4.73613918975956   -6.09201082689765   -7.84851059426413
H           9.28885098418575   -9.32656234134415   -8.60760044776476
H           6.42489922141887   -3.73823633877051   -8.82506624165039
H           8.35738207099663   -6.12121712240293  -12.74781378965826
H           6.47779776900096   -1.79077525318849   -9.45690336700094
