86
 SCF done       -172.595526287982          0.000278905432
C           2.76759147744652   -5.55028973457221   -1.10728642052905
O           3.66516314837375   -5.53476855388587   -0.29511882887267
C           1.39358831599735   -5.99405947030893   -0.95556390743461
C           0.70321698399160   -5.93923205209300   -2.16502301178719
C          -0.62732250378721   -6.38478778602995   -2.04793432761174
C          -0.90296427869284   -6.76246612273606   -0.76653361931139
S           0.42509105626623   -6.59091858125958    0.31855472431514
C           1.57752977797723   -5.43065795503309   -3.19780291600652
C           1.23019346225405   -5.20912339091172   -4.49939295609195
C          -0.06639340418085   -5.49561289170176   -4.98170824523816
N          -1.11347464505582   -5.72562344323596   -5.38828786628173
C           2.08645221090160   -4.67698949056889   -5.48634167267853
N           2.73277553618855   -4.24042075728551   -6.32750880031966
C           2.86739368344838   -5.17125287413153   -2.55900228701299
C           4.01081277277611   -4.74013593909313   -3.11917719469634
C           5.18560828285657   -4.43366753129363   -2.31973135611444
N           6.32411544949866   -5.03083877136573   -2.55255594436673
N           7.40999727536212   -4.81990296889031   -1.84293716393929
C           7.46273526283217   -4.02375258979153   -0.80075204465559
C           6.29695743859525   -3.26384779989282   -0.47520425818939
C           5.11885241625060   -3.47044342289928   -1.26983352961092
N           4.19168865893986   -2.64531809982960   -0.83008255245729
O           4.74848572941337   -1.98102812750185    0.17753245593105
N           6.00813608654635   -2.33348001717931    0.41203273947900
C           8.70115924675147   -3.84070707313285   -0.06683723314393
C           9.04234003737102   -2.56155452577025    0.27991914963777
S          10.59587094546491   -2.40473784598296    0.96818605884159
C          10.81556751259358   -4.12575088799090    0.86659310619285
C           9.71815795770114   -4.79828584573311    0.30436544822361
C           9.73906469168817   -6.21426522108828    0.24421571826107
C           8.49359676948040   -6.93174715952241   -0.18980546105334
C           7.38847844345576   -6.78355497924296    0.85961782112608
C          10.87272568772274   -6.91243282133589    0.65136850073366
C          10.97478348653933   -8.40441226972576    0.47464164482178
C          10.36783688198946   -9.17785325089093    1.64853864567509
C          11.96987036242805   -6.22439389542903    1.22139198339262
C          13.23051497864884   -6.71761021313674    1.73499392442137
C          14.05538035310355   -5.69288255484586    2.11828990574937
S          13.37809295636326   -4.13105508335936    1.96415522371562
C          11.92700248482718   -4.82458282093389    1.30381164575773
C          13.62747627940493   -8.08397440045153    1.94819461567739
C          14.89888682289831   -8.53231451290231    1.86426913474892
C          15.23214651849765   -9.89127686788382    2.15314331449724
N          14.28621444499362  -10.75849511275114    2.47774305506810
N          14.52251713246884  -11.99399732926290    2.81534320787506
C          15.73349339919888  -12.51490690852903    2.89264124980811
C          16.84241717975735  -11.71820681005816    2.48749051375782
C          16.58093078689022  -10.35915458176063    2.10030089848003
N          17.73512470498529   -9.81499220992072    1.77690962924948
O          18.64818432784954  -10.76479435123176    1.94992940176814
N          18.14008233296469  -11.91672409591034    2.37862366849740
C          15.88994176103462  -13.87840913414512    3.32156108874807
C          15.10789263381260  -14.52588208733847    4.20815479094487
C          15.14092781760871  -16.02723789325670    4.28948923530785
O          15.97859712208229  -16.75683318058705    3.81822629000836
C          13.91460663447937  -16.34981545381099    5.00690199172392
C          13.26103750199472  -15.19997736210111    5.44428829144711
C          14.04771683404900  -14.03875673297869    5.08559035061822
C          13.92846019421760  -12.80346379147367    5.65542219732249
C          12.87796795018436  -12.49499236468164    6.54586668146240
N          12.02422478207728  -12.22627768653831    7.26320073901975
C          14.85463351476218  -11.75193908005606    5.49845569232310
N          15.60317827306376  -10.88279052775895    5.45805933339172
C          12.07441551349067  -15.48432759042225    6.14605758061170
C          11.85950535967260  -16.82944042303135    6.21302294893986
S          13.08169889254122  -17.77553223861968    5.44902060029885
H          -1.33906627708985   -6.42847426703194   -2.85126272065723
H          -1.83346719592268   -7.14093753524792   -0.39033996517922
H           4.10928927374333   -4.61117364174623   -4.18820893576157
H           8.45481066349439   -1.67948416532446    0.11491134555366
H           8.15131209281768   -6.51452342287523   -1.13876979589388
H           8.67773354185005   -7.99122492275786   -0.34180846800838
H           7.14459560193055   -5.73867270629274    1.03757737273804
H           7.69875813931792   -7.21741027249957    1.80812398184781
H           6.48502435325143   -7.28708874202916    0.52369837426597
H          12.02683919261880   -8.66903893647187    0.36339417950095
H          10.48153775135718   -8.70439936733154   -0.45070809907749
H          10.72889349337068   -8.79075898078913    2.59886950526003
H          10.63121033920610  -10.23069968080363    1.58047112318482
H           9.28457348744585   -9.09283415310736    1.64719369275491
H          15.02653217357757   -5.79337094940987    2.56257643735761
H          12.87972353420963   -8.80066974303990    2.25081378285719
H          15.71738413177585   -7.89749997440968    1.55832665265659
H          16.68274453934923  -14.44465021985514    2.84653827499032
H          11.41527846641552  -14.74901785961639    6.56880053456968
H          11.03695099354850  -17.33091291454452    6.68471912833692
