69
 SCF done       -136.432170340683          0.000832576484
C           3.84505481102458   -3.62288671190078   -5.08813068189732
O           3.43148172898919   -4.15393655546119   -4.07979110611918
C           3.29045185897974   -3.71311853527538   -6.43987732046119
C           4.13330851830090   -3.12679024739716   -7.37181557790029
C           3.64163625161223   -3.22412963520764   -8.68876854108714
C           2.44896357601712   -3.88282834782741   -8.71539943339808
S           1.90147566955359   -4.39812106015598   -7.16159435306460
C           5.28574316663128   -2.57849117449091   -6.68158732638583
C           6.29901566156884   -1.88014165430768   -7.28731811416033
C           6.32887604281557   -1.67946261239322   -8.68231786843073
N           6.37381697602278   -1.50749886066006   -9.81639915687527
C           7.39053444850014   -1.28172509760310   -6.62896766010642
N           8.29905722505769   -0.75700351955550   -6.16117211229717
C           5.10614180750611   -2.85672405021322   -5.27070920646831
C           6.02141360397940   -2.60433772361389   -4.28396770258622
C           5.80381853267868   -2.66417649316706   -2.89702998131345
C           4.63340390927116   -2.42491624832401   -2.15551283337793
O           3.52726682200815   -1.98470768398815   -2.76613381620705
C           2.37311126770221   -1.79537355780297   -1.97841404663046
C           4.82818694629689   -2.57873590916427   -0.77941354658330
C           6.12885426870022   -2.90679106937228   -0.44030129716466
S           7.15077901536675   -2.99557941549812   -1.83328629138028
C           6.63857890547459   -3.14218583921971    0.85420908428010
C           7.96724809968403   -3.44262151152821    1.16959757739828
O           8.86460021261374   -3.52636366546855    0.16974835153841
C          10.20792357760434   -3.78982518099610    0.51191312081714
C           8.17382886068200   -3.61947933012884    2.53959376440785
C           7.01967235560406   -3.45548776216224    3.28476674138231
S           5.65170374092366   -3.08101737094894    2.28322341317986
C           6.88159054318817   -3.54778731922931    4.68493609972357
C           5.69973097700635   -3.34717952860651    5.40841415689454
O           4.56746197155278   -3.07919873836968    4.72833485110448
C           3.44372124822097   -2.65985590157340    5.47252358324824
C           5.87760511340692   -3.45359657350314    6.78633591303481
C           7.18512056011204   -3.73422315156029    7.15405159408201
S           8.19861686867288   -3.90681963444617    5.74394226345851
C           7.74439187251765   -3.96258891460428    8.42658989765844
C           7.26912157151119   -3.64951115115286    9.66641843638787
C           7.84276392437547   -4.37801061617345   10.84310098305572
O           8.82154222397392   -5.08796106137902   10.84430116172646
C           6.92551642750407   -4.05740891591749   11.93180061913932
C           5.95668008590857   -3.15039135473576   11.51968125593855
C           6.21479787698982   -2.77824151893782   10.13914410872558
C           5.69811490236597   -1.65719901904261    9.53921682545940
C           4.68900197432835   -0.88489470042970   10.14943353586349
N           3.84203037520637   -0.26129136216050   10.60950759434881
C           6.14702671081343   -1.11399176197855    8.32170339365498
N           6.49177316847409   -0.60473524644652    7.35187424706173
C           5.05917629755274   -2.80929343045687   12.54876243445025
C           5.36677289861569   -3.47129176503303   13.70111167895034
S           6.74507898909431   -4.49937187810523   13.57254790362998
H           4.13180176240203   -2.83899857281673   -9.56349339901820
H           1.84524831440684   -4.10095387785666   -9.57443658436041
H           7.03567951705783   -2.36344620819241   -4.58040272620033
H           1.59478873104529   -1.47476497683886   -2.66834743110573
H           2.53213175097679   -1.02246756480226   -1.21963827156748
H           2.06991969058466   -2.72917344302500   -1.49813339813569
H           4.06616188089502   -2.46266654571014   -0.03040741947329
H          10.75533581117228   -3.79033132829027   -0.42833813763937
H          10.30888541419299   -4.76580446362811    0.99563141362862
H          10.60862165823032   -3.01278313349256    1.16913080546564
H           9.11595882151057   -3.85572065897826    2.99978395703530
H           2.68690387132515   -2.39297532412810    4.73797641441007
H           3.68294325632354   -1.78775389789957    6.08756319967543
H           3.06498914732646   -3.46639729914717    6.10756001848174
H           5.07974637903887   -3.37999776298026    7.50241495040438
H           8.66824543197638   -4.53356197281035    8.43597711481934
H           4.23476600995484   -2.12729625952559   12.45265259419399
H           4.85432810870620   -3.40777634224983   14.64110028257512
