90
 SCF done       -185.120754876135          0.000997889651
C           2.58833162526393   -0.79120723627609    4.26346510599379
O           3.72449249393505   -1.18386606547621    4.47352090907255
C           1.59933145381584   -0.38321922421255    5.24408591673990
C           0.43012198916079    0.04406185397957    4.62757332022624
C          -0.55743884519862    0.42915024741858    5.55363894110000
C          -0.10848591744902    0.28255943096867    6.83386163782558
S           1.50475212107257   -0.31369311929148    6.94857898546490
C           0.59770218465215   -0.05038515172045    3.18963456596452
C          -0.35169302235123    0.32039516856237    2.27498824417086
C          -1.59979776640106    0.84342894107439    2.67688765364442
N          -2.61853305401474    1.27663001285926    2.97783841042692
C          -0.23144687496293    0.25040146221720    0.87270621937736
N          -0.20562030642061    0.22675523769805   -0.27505013968076
C           1.92622475662333   -0.59956116272281    2.95510917754391
C           2.45557498429792   -0.89046182915833    1.72592484427648
C           3.67436238872748   -1.50310821538717    1.38671984816311
C           4.06048777700716   -1.74884659417676    0.06220602629889
C           5.26640082474472   -2.42360315246450   -0.02296980291080
C           5.79570504396067   -2.70484653856515    1.26109237191492
S           4.85269053493977   -2.11624579294364    2.54495024586198
C           7.00271750529533   -3.40087848468279    1.09943332563104
C           7.27251602271176   -3.56742610078320   -0.27895593254080
C           6.17916649752818   -2.95162996643878   -1.02635361654719
C           6.05014987205814   -2.88863270243333   -2.38300920253037
C           4.95033151202052   -2.26411905345988   -3.00817182579102
N           4.06122589912977   -1.75892266688300   -3.52640738283701
C           7.01597792174189   -3.44284722591713   -3.24843725204148
N           7.80149141979217   -3.89602190988312   -3.95056368498924
C           8.45772241813285   -4.24739125484698   -0.50715914009990
C           9.09864404195665   -4.61775149629564    0.68556432167565
S           8.18552693489135   -4.09018368725569    2.09979735609184
C          10.30726463834021   -5.31442728554750    0.81547731952905
C          10.87321352639373   -5.70833916516451    2.01137806351827
C          12.09342694769940   -6.39013095486864    2.23842920372331
C          12.36709159393845   -6.64730398897054    3.55558968847339
C          11.36881951027416   -6.18965535328535    4.43510475958147
S          10.09014638575730   -5.40929748233686    3.54186771344153
C          11.19495374989976   -6.24103450457979    5.81322272609085
C          11.99122350478003   -6.69983230088431    6.87570310933046
C          11.41235693782604   -6.53304789444537    8.10613973086990
C          10.12447462310576   -5.94707602301295    8.07798564653210
S           9.68566513993841   -5.60507886750278    6.42447694682961
C           9.31041016891182   -5.66896000032987    9.15877221465792
C           8.01513336451932   -5.13989759427358    9.12386427553006
C           7.19575180648234   -4.81583949283848    8.03370561510754
C           5.95596472264340   -4.34826851182380    8.42116661516732
C           5.78925268197694   -4.29123997589832    9.82514563728341
S           7.18844830176565   -4.82770196750589   10.65491973115656
C           4.49223529976969   -3.83001304847883   10.09963893394143
C           3.81362384040939   -3.61538887607525    8.87286080824505
C           4.71036214251016   -3.93200588227675    7.78338511269098
C           4.43496024315099   -3.88943998865932    6.44528739138079
C           5.39520198248285   -4.17178524450796    5.45340028565224
N           6.16508974035781   -4.40454098305306    4.63531507966768
C           3.14032355185518   -3.60111414767440    5.96736456219974
N           2.07223852634275   -3.42063441370019    5.58905787064608
C           2.51164718980238   -3.16867141168965    9.05202043645107
C           2.18418268990273   -2.99490118256560   10.38901995059371
S           3.52016457520301   -3.46201466941920   11.45038307981166
C           0.91787831676139   -2.61128669652715   10.87693320982653
C           0.55378664825437   -2.20161383422477   12.12346637739323
C          -0.87571768872275   -2.32694116647809   12.54685288807085
O          -1.82918844622593   -2.52535535580882   11.83002567102136
C          -0.81151704972612   -2.20260251821072   14.00077571172952
C           0.47701737025627   -1.89719141330693   14.42517197188374
C           1.32766508977523   -1.74409594785558   13.26006710191879
C           2.50000961496316   -1.03326390336112   13.23374322229730
C           3.12249553525324   -0.58110521158710   14.41356903417157
N           3.64894191860568   -0.22775790276531   15.37022033870115
C           3.11410425159104   -0.60260019194297   12.04148324862289
N           3.59201850655856   -0.19060544956139   11.08216621092864
C           0.57308443680344   -1.75844694567204   15.82160578699535
C          -0.63634978180576   -1.97354426539500   16.41488542776002
S          -1.90886267125909   -2.32573213132131   15.30586576098638
H          -1.53800531398961    0.78914902106004    5.30351142350013
H          -0.64591393844470    0.49555143024484    7.73740358957344
H           1.84787142175544   -0.64397144602771    0.86299352910116
H           3.45961212957313   -1.43846697932881   -0.77470782689104
H           8.86253449120723   -4.48439203628472   -1.47475325817420
H          10.83062907163820   -5.56389257600328   -0.09776459761852
H          12.73753803467180   -6.67204933644422    1.42396225127060
H          13.24793499655116   -7.15830437968876    3.90182762248785
H          12.96426018447818   -7.12988221668004    6.71765864816822
H          11.87583994375746   -6.82054679641747    9.03351966807020
H           9.71486417312218   -5.88962643212850   10.13803795975742
H           7.49140531256312   -4.93108866208189    7.00914489448617
H           1.81957611579694   -2.95075771599592    8.25912019816695
H           0.09645644393765   -2.74562277407223   10.17912843783002
H           1.47346939463316   -1.52501743188851   16.35915473461698
H          -0.85943833606219   -1.93898124562210   17.46334880747330
