81
 SCF done       -165.951468558868          0.000293197252
C           4.99570708058192    0.16879217664037   -3.90313975275562
O           5.19936049109013    0.23270469408923   -2.71320199837422
C           4.91668025606107    1.24527184007610   -4.88053661212646
C           4.84461752740293    0.74848708987316   -6.17804340139582
C           4.78380992733522    1.76938632901319   -7.14579655748683
C           4.81428452776761    2.99941239117055   -6.55699796702301
S           4.92053771749378    2.95105983392032   -4.83639281851179
C           4.85521673200986   -0.69881921312094   -6.13718470028121
C           4.78510984880295   -1.52026182323816   -7.23063937351864
C           4.71940354140759   -1.00555741167023   -8.54286467136878
N           4.66941755927848   -0.60872267903836   -9.61821438330448
C           4.77778599371637   -2.92862465561051   -7.19362269332957
N           4.76999042194580   -4.07612517656093   -7.23203283262982
C           4.90579154681483   -1.07735806867988   -4.73402585160486
C           4.98247240261110   -2.33280862399690   -4.22632867469406
C           4.84024748476391   -2.69259426474103   -2.85427399771901
O           5.54455529233623   -3.75538327403696   -2.42532853595679
C           5.24764148004013   -4.00667522372360   -1.12393179569866
C           4.27816660178093   -3.08373642397344   -0.70549546605923
C           4.02287849190039   -2.24961617642638   -1.82155085587054
C           2.90963839849588   -1.25893420165106   -1.82323939075751
F           2.60786059569029   -0.79187941740008   -3.04807430299038
F           1.77127573472455   -1.83294893010104   -1.38045768938418
F           3.11355440825267   -0.19996632496883   -1.03894324350944
O           3.62627952814870   -2.88860189529870    0.44472351361932
C           3.85860993991173   -3.73086771842370    1.55192037679111
C           5.90779007455756   -5.09170386260033   -0.48791959596774
C           6.85357152897857   -5.83886008841389   -1.11596136027468
C           7.49489752937642   -6.96507504607014   -0.54874932956823
C           7.26167209403638   -7.59299573808781    0.66483889074668
C           8.06908724026313   -8.71167817916239    0.84658290729734
C           8.94592789257407   -8.94180510183478   -0.23740014140758
S           8.75799021886772   -7.77884690073900   -1.47268249815476
C           9.70013998066804  -10.10129703369758    0.03093064207488
C           9.29486522199693  -10.62365615650133    1.27800691200942
C           8.26604366593675   -9.75359588906493    1.83412418108984
C           7.62851475765644   -9.89150985852025    3.03373442239861
C           6.65393047845672   -8.96746961000878    3.46276902471482
N           5.86547459480893   -8.20705833681739    3.80371171132050
C           7.90750129115161  -10.95410655748326    3.91824165189481
N           8.13386580122130  -11.81550641861401    4.64066510765659
C           9.95316166345635  -11.79107400956338    1.62804331727013
C          10.88364624723173  -12.18243560766832    0.66497305823609
S          10.92538293216183  -11.05107111627376   -0.69139416204153
C          11.73825688988313  -13.29269029767137    0.63037334059470
C          11.75148490574046  -14.37349876611049    1.47985893868084
C          12.65357073114783  -15.46447644972760    1.39105994810266
C          12.43976379172652  -16.44916941522946    2.30569081820972
C          11.34872705300906  -16.19865366637863    3.16885870794576
S          10.62353993076558  -14.65090202482028    2.79302007407330
C          10.84622163532952  -17.00824458286375    4.16657098934635
C          11.32539268948347  -18.27446909381096    4.58266783206668
C          10.59688158924554  -18.83527589171723    5.58020165854968
C           9.48555216309595  -18.05393563227184    6.01809673397714
S           9.43740480662565  -16.55459894251226    5.10058743560407
C           8.59897204055451  -18.45288838052773    6.97220417364577
C           7.43574883940080  -17.79103698725943    7.48078599187481
C           7.04643793449876  -16.46607171612301    7.20695473059306
N           5.91693571762194  -15.96438657429637    7.66099738917436
C           5.16089840166132  -16.73356101232304    8.43155098513474
C           5.57786749040297  -18.01210027319766    8.79087727783230
N           6.68461061495866  -18.53721365361561    8.31136122197230
H           4.72193106681429    1.61474881136703   -8.20696606582392
H           4.77850929700249    3.95240578423994   -7.04787889928891
H           5.19870034561141   -3.16807676832290   -4.88067870290701
H           3.20958641631119   -3.35039965849613    2.33895172296356
H           4.89914888150337   -3.67469348389371    1.88248616090803
H           3.58673735029623   -4.76601991381127    1.32922418629908
H           5.63120640634102   -5.32285368049244    0.52559019299991
H           7.14177534189260   -5.57423460910823   -2.12330592659220
H           6.52653076515614   -7.25497207535726    1.37121876856377
H           9.78846858825010  -12.33077113226831    2.54128562663201
H          12.45758359685608  -13.31481733164015   -0.17843171792328
H          13.43102839184371  -15.48421509535465    0.64779680275668
H          13.02573410617513  -17.34770913093032    2.37523556271114
H          12.18841798820577  -18.73027973437344    4.13161162881881
H          10.80535743387555  -19.79276714252524    6.02347612261243
H           8.76494893375649  -19.42828898911137    7.41211182490281
H           7.65769064019220  -15.79154308996798    6.62497950237658
H           4.22376507391283  -16.31219616773015    8.76576667502908
H           5.00551540672108  -18.63473057269405    9.46565722471203
