95
 SCF done       -189.579957753795          0.000942852391
C           1.49439804811268   -3.04169242464918   -3.53853699305532
O           2.70185062271839   -2.95110517072615   -3.39877693210694
C           0.65631840812818   -2.38618889187721   -4.53095859136223
C          -0.67883258657483   -2.73165844934501   -4.36366283365082
C          -1.51901104171009   -2.11540768078394   -5.31041687952843
C          -0.79928457873692   -1.32792108703316   -6.16046066841336
S           0.89422701869240   -1.31164201357714   -5.83816004756604
C          -0.79203082962835   -3.64137416835190   -3.23901944029147
C          -1.97130827000122   -4.17043820544713   -2.78693920408310
C          -3.20244743681705   -3.86522167048285   -3.40631512896694
N          -4.21347389213081   -3.63303818852623   -3.89616250654348
C          -2.12525279776636   -5.04704157126970   -1.69418128460012
N          -2.32723977727149   -5.75677796325638   -0.81452292548656
C           0.55639187813561   -3.84750271385478   -2.73073171950622
C           0.89667300675342   -4.67250421512746   -1.69347364627561
C           2.15043824070689   -4.97157808323861   -1.13544295103718
C           2.29268404624987   -5.89310873181410   -0.09243814844890
C           3.60962081927094   -6.05880234205200    0.29276631207095
C           4.49245100167956   -5.24599996928141   -0.45607187574469
S           3.70425334922630   -4.29624929818152   -1.62746935804197
C           5.81074704601023   -5.50305943840343   -0.00099264303975
C           5.76611828237892   -6.46832376609575    1.01649597498621
C           4.38130837918761   -6.84596022357598    1.24293583079098
C           3.91096215174031   -7.74978107141425    2.14957997666192
C           2.53654256248801   -8.03876827353165    2.28471834957143
N           1.42208945311994   -8.28106617143162    2.39959466208482
C           4.77233870270466   -8.45824779957128    3.01339739365448
N           5.47464287071010   -9.03374650507610    3.71378661374456
C           7.03167035799235   -6.80006735072998    1.50887384165370
C           8.03761987966268   -6.09487834402055    0.88337240236395
S           7.40704406311212   -4.99642979610763   -0.33328007068326
C           9.46121819015270   -6.18943905318351    1.10580875520628
C          10.30668497332219   -5.17094915673012    0.66570419849042
C          11.66709282364035   -5.30096913537372    0.87909650703990
C          12.20172052311257   -6.45515317514580    1.50869297887697
C          11.34879930587065   -7.46373761892709    1.94459113174684
C           9.99547445753196   -7.32363149245618    1.74817285663799
C          13.61858561825734   -6.27989905163975    1.53505594074395
C          13.87740707811299   -5.02085740894123    0.93281310286991
N          12.68979235687850   -4.44276760847634    0.55876376756258
C          12.54420919444466   -3.17160886943150   -0.09246787890774
C          15.17062126183765   -4.55107360444949    0.79179475237148
C          16.22319618301958   -5.34593282065286    1.24586436585854
C          15.96091815799769   -6.59509175739014    1.84157731767063
C          14.67593589677362   -7.06013560335469    1.99114550861825
C          17.58530408236136   -4.88674453066876    1.11150636678021
C          18.74238163608932   -5.63622467018593    1.14908458319693
C          19.88849603742599   -4.85126855287754    0.99622904121862
C          19.59857025416850   -3.48716488863303    0.85005803797722
S          17.91972519705212   -3.17901033339023    0.88251391486635
C          20.81877224661332   -2.77574689672261    0.73079239932691
C          21.88285245770242   -3.69609171229179    0.78415974143015
C          21.33192001961218   -5.03126619946130    0.94938749948307
C          22.02011949817645   -6.20499618515932    1.03954364257508
C          21.36826387670629   -7.44485233883163    1.20866483984092
N          20.83202104309439   -8.44965648120506    1.34110404231115
C          23.42795421586606   -6.26040722149165    0.96015895051351
N          24.57057089005951   -6.31338501953855    0.88492297207868
C          23.12899231894339   -3.08591187698283    0.67734351971313
C          23.03419046677945   -1.70698252504117    0.59465406407190
S          21.35352901218588   -1.16907803388516    0.57512717916876
C          24.11630483080290   -0.80458055194716    0.45329881179924
C          24.17320894407124    0.52148670951755    0.74010316694770
C          25.24057515269101    1.36305597284258    0.10851493444520
O          26.21488476931849    0.96719010258324   -0.48637926310028
C          24.78226004290395    2.72857317823813    0.34363082829968
C          23.63802804739175    2.74932122420617    1.13432578454518
C          23.30627232343390    1.39060701246955    1.51688946049624
C          22.53518216859777    1.05464568962766    2.59841394552964
C          21.79603506699017    2.01979618123857    3.31227326237940
N          21.17031370249794    2.78916555704564    3.88922997346641
C          22.47483772789067   -0.23735470087931    3.15714391236784
N          22.43849170447656   -1.26381825821400    3.67013720897865
C          23.17942954864181    4.05409324061799    1.39388426980388
C          23.97755320258263    4.97880631899821    0.78703559555812
S          25.29865322118699    4.29946908817194   -0.08839081357376
H          -2.58426083487126   -2.23901037393024   -5.36956388833871
H          -1.17607835562612   -0.74263934826438   -6.97637365213437
H           0.08522319976435   -5.20656270431351   -1.21265533080034
H           1.45032676487647   -6.40604894728288    0.33726357204767
H           7.20606378657828   -7.50797563487723    2.29755244966799
H           9.89210747828831   -4.30376840796453    0.17330790674625
H          11.74573000889505   -8.34429430000793    2.42505609458201
H           9.32956056180759   -8.10823672399825    2.06848996450587
H          13.34251006939799   -2.50295705384696    0.22694603974224
H          11.58917438712000   -2.72628701061171    0.18316609382627
H          12.58417821816761   -3.27547525002556   -1.18119963725879
H          15.37896328409022   -3.59987531234864    0.32457494733723
H          16.78541865861454   -7.18743511988881    2.20362419883848
H          14.48832962112957   -8.01600489387752    2.45470252300030
H          18.75191234485480   -6.70424994185372    1.26261097568616
H          24.07369744995524   -3.59868529565113    0.69633090634065
H          25.00826121621770   -1.21621427618858   -0.01036869904497
H          22.31463438323667    4.30060747472019    1.98155510843044
H          23.86632905209889    6.04530175797202    0.81027774037696
