92
 SCF done       -189.397631168512          0.000451482243
C           2.41388113260974   -3.16392431574388   -4.45567618625066
O           3.62655342921973   -3.09978917102128   -4.35275814197562
C           1.57080449451125   -2.56794506118049   -5.48058518636154
C           0.23054248330205   -2.85354818736110   -5.25293199717919
C          -0.61439322620410   -2.29247343243485   -6.22924357699323
C           0.10718888531523   -1.60441578969190   -7.16030639630717
S           1.80813773245198   -1.61691747490853   -6.88022670110261
C           0.11902204653610   -3.65806267613994   -4.05041012155603
C          -1.06519662022675   -4.09363095321905   -3.51805617001735
C          -2.30245709790031   -3.79293637531918   -4.12714029618280
N          -3.31849672139101   -3.56057314722976   -4.60666455243519
C          -1.21805729765428   -4.85491136501433   -2.34199412764936
N          -1.41890947040752   -5.46856657129547   -1.39253267730218
C           1.47340480869527   -3.86994972588044   -3.56137113091939
C           1.81616412167032   -4.62421756293982   -2.47181696405553
C           3.07468904083608   -4.91011477364325   -1.91726913805324
C           3.21955201767209   -5.74693087797877   -0.80515202410029
C           4.53932418113197   -5.90242554700291   -0.42512466500159
C           5.42343073552146   -5.16512908344188   -1.25177136550566
S           4.62989263080750   -4.30316023627866   -2.48791545239362
C           6.74097553930267   -5.38987591496862   -0.79213444543516
C           6.69718387285596   -6.26167787539157    0.31149647410624
C           5.31056728335096   -6.60178125751115    0.58903480723659
C           4.84873610061411   -7.39084958166396    1.60156952935563
C           3.47482624463717   -7.65984778604424    1.77872356564953
N           2.35968745809836   -7.87856040284137    1.92924118458665
C           5.71111962158356   -7.96037576392651    2.56285444719097
N           6.40828104410057   -8.39483120514021    3.36339953561186
C           7.95429389405992   -6.56575580202590    0.82002316176514
C           8.96812812468986   -5.92811365041291    0.11930561220591
S           8.34139660143117   -4.92976742005719   -1.18377789190534
C          10.36963347414519   -6.03177987941021    0.35701367182852
C          10.89435630232731   -7.00168950856445    1.17966763040180
C          12.24582263302008   -7.16074780962519    1.46146875173502
C          13.25670057893996   -6.26151454874307    0.90342055752941
C          12.97218154253591   -5.24814872686207    0.05537470281394
S          11.38485550836170   -4.86032202105101   -0.47116042076702
C          14.49415054605000   -6.72249361718350    1.43243565792406
C          14.28331714942963   -7.83462370492572    2.25443567540544
C          15.49605909038992   -8.32487616749791    2.78836076976313
C          16.56222571702077   -7.59248553209925    2.37183441763747
S          16.15010463370528   -6.28443076836009    1.31799318593679
C          12.87364427697001   -8.12979748008686    2.27673170551896
C          12.16892805761310   -9.16776316524589    2.91510324211179
C          12.64882730768467  -10.13114460412496    3.74985503358824
C          11.81916658279363  -11.14306238218391    4.28580538598540
C          10.47815912128844  -11.39431361821678    4.00942062611148
C           9.98865110785886  -12.48008541672782    4.71823192116627
C          10.94910097971025  -13.07815569180318    5.55786131057767
S          12.46531804096954  -12.29164385333494    5.45006530048398
C          10.34356859086261  -14.16265381986381    6.22956245807271
C           8.99367371982101  -14.24737496135468    5.81759889946756
C           8.73438627178802  -13.20885219561189    4.84144632170760
C           7.58213905068574  -12.99970191342601    4.14027786994538
C           7.47062454912539  -12.00056127314154    3.15090358487237
N           7.39144845502669  -11.20346760797532    2.32977135064736
C           6.44439561343129  -13.80778908950257    4.34694243627200
N           5.52896008853562  -14.47349511415093    4.53136049671237
C           8.31627548822028  -15.31065872960100    6.39794232059214
C           9.12385021219087  -16.05121249583471    7.24801590833425
S          10.75214720588563  -15.37883760777177    7.34836114671271
C           8.79227437914971  -17.17575883770975    8.03208169431873
C           7.74495263448095  -18.03487909561102    7.89282768827009
C           7.36036091894855  -18.87999571937360    9.06905468934827
O           8.00063061863457  -19.03587888191561   10.08328278891196
C           6.04944636142596  -19.40374130876474    8.70494193320460
C           5.70360009855447  -19.03606358233082    7.40970715038676
C           6.79871740529461  -18.28553750634065    6.82108370052471
C           6.96587474181233  -18.10926937729383    5.47195566184832
C           5.98573213238019  -18.51755262296799    4.54223155119041
N           5.20395376434943  -18.84764396452356    3.77048998716979
C           8.13208455245989  -17.61475359603467    4.85991073639448
N           9.07210257581644  -17.25212581775924    4.30888858125109
C           4.44161234343865  -19.52496425691388    7.02401140558520
C           3.86747543484764  -20.23831914173097    8.03481840702332
S           4.83743672000003  -20.34628105537632    9.45639776169187
H          -1.68411575340447   -2.38536523337197   -6.25305286303872
H          -0.27233536191919   -1.07849476596150   -8.01448775632835
H           1.00260911241815   -5.09860822608171   -1.93520546756115
H           2.37630630897075   -6.20876019893972   -0.32232658965904
H           8.11967477335476   -7.20590731135123    1.66594207345575
H          10.19381494594029   -7.69284286048927    1.62277447989978
H          13.73078346443802   -4.60318344207695   -0.35899175530482
H          15.59385398187865   -9.17064075384673    3.44325113577976
H          17.59496684853208   -7.73931393748417    2.62107305694165
H          11.11037211404738   -9.19160021066829    2.70033176199623
H          13.68850853141415  -10.14622534495703    4.03726093300263
H           9.89307542188612  -10.81690606539964    3.31888734274231
H           7.27135170722792  -15.51791211392190    6.25550164451370
H           9.41335636121103  -17.35454023279365    8.90466030860159
H           3.97701001054399  -19.35650455319292    6.07037146399469
H           2.90983786492836  -20.72111769266746    8.02444546601574
