96
 SCF done       -198.292110183989          0.000956391894
C           0.28895145475362   -0.79566461438053    1.19855170025925
O           0.81959534222906   -1.43607408115421    2.07970016824063
C          -0.95405958234596   -0.03754077207576    1.28044002126040
C          -1.24436287598536    0.59920782697112    0.08118040327298
C          -2.43822558506832    1.34429930580466    0.13999477892881
C          -3.00876182778843    1.25032946788980    1.37516972862849
S          -2.12637236825679    0.26741436290921    2.48380728658738
C          -0.20496431038410    0.28815157540051   -0.87837665400225
C          -0.20844139298033    0.71120001075054   -2.18177052745813
C          -1.24124820398011    1.52927459909954   -2.68897281255558
N          -2.06173299148764    2.20360434321172   -3.12279631803878
C           0.74851116332885    0.40385446731297   -3.16937176684995
N           1.47825733720419    0.19107655546309   -4.03066360899792
C           0.76791540927226   -0.55828776922214   -0.19595938914434
C           1.94693811219949   -0.95311276901470   -0.76040718320407
C           2.97629977132895   -1.79061784387975   -0.28304979978393
C           3.07440545309271   -2.64356395518852    0.80853565117025
C           4.30167776856116   -3.29112186322807    0.86048158353073
C           5.16599961086131   -2.92824619430370   -0.19828242566149
S           4.45029318765918   -1.81929949557054   -1.26732398198481
C           6.39594657296197   -3.59995714155334   -0.02406951119920
C           6.32074526562876   -4.39238018667777    1.13624848032638
C           4.99274116120733   -4.23973848077420    1.71798321765623
C           4.50359344434440   -4.87635918129325    2.81923971589919
C           3.17814622334527   -4.71391017639123    3.27963161221928
N           2.10318792736519   -4.62385524511681    3.66618846998079
C           5.29080896421056   -5.77484226992581    3.57231845152940
N           5.93419075586316   -6.49837423729725    4.18589566429048
C           7.50147658227585   -5.08065063406223    1.40314496755564
C           8.47960040890012   -4.81581398753893    0.45552044301852
S           7.92111845886915   -3.70843869834364   -0.78721882386532
C           9.80749154242498   -5.30888214940860    0.42246566616897
C          10.43164624725299   -6.12921326135750    1.34735328854844
C          11.75912577908816   -6.38369425431828    1.00796981397762
C          12.15205066573441   -5.75609699626368   -0.19663608503673
S          10.88219259816407   -4.85341930899238   -0.89656060209575
C          13.50247619095241   -6.06116709437157   -0.45184743714411
C          13.97523409915851   -6.88747571932423    0.59234915206037
C          12.89447438907784   -7.10270726120786    1.54668169672738
C          12.96832870760455   -7.80038703264686    2.71800254203038
C          11.87618406210161   -7.90313855518046    3.60400997138705
N          11.00172121621903   -7.99347583057794    4.33998165028557
C          14.14594888947867   -8.44248591537551    3.15155375220012
N          15.09116746602092   -8.97447897917564    3.52620756230570
C          15.30220255746415   -7.24587183611127    0.45563339848236
C          15.88666386040919   -6.70425911341072   -0.69344323752366
S          14.72390917217192   -5.72977864394914   -1.60263703541946
C          17.19335222206652   -6.82456978814129   -1.18053698614949
C          18.22041258943567   -7.56607710335645   -0.63634393275488
C          19.53602367625055   -7.67151878957334   -1.15137533991713
C          20.35921579858886   -8.49435539300703   -0.43678162355959
C          19.73545545136054   -9.08445084582656    0.68075708384442
S          18.08024918792885   -8.55223207926130    0.80323657646234
C          20.21238966044425   -9.98595648031364    1.62015615484947
C          21.46836643620346  -10.62117790149829    1.73184216134995
C          21.52921629131032  -11.49607383599903    2.77577584880048
C          20.32566852029248  -11.60328891894818    3.52483216796429
S          19.12438943259734  -10.55162442377276    2.85745135164096
C          20.17752508938727  -12.34442798996514    4.68614292437831
C          19.08123852495924  -12.44608775979246    5.54458935428320
C          17.73653044051355  -12.22304070281408    5.29796117208479
C          16.70846756753912  -12.03894275803760    6.29885255198250
C          16.88817521026048  -11.93142394933700    7.65651632696085
C          15.83834267286279  -11.75241730821453    8.58036868711175
N          15.02981214033153  -11.62077424305411    9.38515393243046
C          18.12802906851407  -11.97564743182049    8.32561710474458
N          19.09381789464305  -11.98168650132266    8.94819763453098
C          15.42813681918364  -11.90246533526712    5.60599769294351
C          15.65407836696200  -12.05230350541555    4.21687445453552
C          17.08675452045462  -12.29472282272576    3.98405909264081
O          17.61275715915808  -12.55384231058275    2.91314100854395
C          14.65595903237430  -11.93457785944223    3.28332989038550
C          13.36668813395508  -11.64627111981945    3.74357842008613
C          13.14490165739580  -11.50534581373135    5.13270801632653
C          14.15835548869257  -11.63149760134338    6.07752360296356
S          11.48129472815415  -11.13720922277628    5.47946785137012
C          11.11636919772619  -11.16158591675654    3.77769301138958
C          12.18174915136836  -11.43762468936988    2.98726821049932
Br          9.37512641271327  -10.80576552767599    3.18533925766203
H          -2.85471499201838    1.91623102207053   -0.66800050365195
H          -3.91889755205609    1.71274089316575    1.70405765807338
H           2.15622852105940   -0.54998369122635   -1.74491089307935
H           2.28059843128601   -2.75974280013457    1.52397182159858
H           7.65504162507492   -5.73901560058784    2.23778829654992
H           9.93759899751895   -6.51273346249077    2.22087418464472
H          15.82949840035121   -7.86308045705239    1.15652924085562
H          17.42078376469318   -6.28043339864671   -2.08819751303305
H          19.83365500758021   -7.13901725380994   -2.03754060341761
H          21.38599130236908   -8.69198508377697   -0.68690752864856
H          22.27609397052310  -10.42621878771006    1.04938203153052
H          22.39831869682649  -12.07715026399645    3.02982193065991
H          21.08616924527474  -12.82434722685455    5.03150225288903
H          19.33753274068492  -12.75252488069746    6.55205107185597
H          14.86492000204093  -12.04492723499203    2.23092394581546
H          13.93794446808086  -11.50742464661339    7.12463798871958
H          12.13358014406563  -11.49678216597287    1.91473932411129
