97
 SCF done       -201.981487640227          0.000462467257
C           1.52692271725224    1.37224857036241    3.50135254681548
O           2.41284115749254    1.71871410930212    2.75071791202970
C           0.37740381182593    2.15778542542521    3.93383440965930
C          -0.42634709565120    1.44615069569636    4.81438431346176
C          -1.54201475967941    2.18861093517240    5.24804316331911
C          -1.54589570609783    3.43162214599137    4.68691919767410
S          -0.21576596263141    3.73003542983176    3.63079894205509
C           0.14495241122978    0.12984621823470    5.01107966085785
C          -0.42653016326309   -0.84944781121440    5.78013785114751
C          -1.63076244874904   -0.62593877571989    6.48258538489158
N          -2.60577223417553   -0.46950734590694    7.06658152538479
C           0.05346762780902   -2.16087513185781    5.96990474294545
N           0.37054862786906   -3.24737206390537    6.16594273428725
C           1.37222321473707    0.07343755047539    4.22261983583547
C           2.23166838421736   -0.98711323623048    4.24994113630452
C           3.42733627768866   -1.24417231902194    3.54696445447779
C           4.06273466576239   -0.60252109347424    2.49143896738762
C           5.23054924897545   -1.25022450898502    2.11190559519055
C           5.50541757298565   -2.40144681259409    2.88637394470122
S           4.31268961235022   -2.69170757927576    4.05860292288170
C           6.72461048246798   -2.96409697982923    2.44248845795479
C           7.22380932323136   -2.17666498454606    1.38710590124635
C           6.29294435401004   -1.08565867667050    1.13380702665070
C           6.39569601113384   -0.13605147707937    0.16136739292764
C           5.42192552297689    0.86376164353479   -0.05541914528398
N           4.64538911910193    1.67694400528616   -0.27641870243151
C           7.48870070705187   -0.10469242391470   -0.73163570771769
N           8.37541397151213   -0.07554739919607   -1.45803812231041
C           8.43412486490087   -2.64788181544972    0.88817422215234
C           8.85877527112318   -3.78752458956224    1.55420475850847
S           7.74428605972683   -4.28348824242061    2.81537853390811
C          10.04521427469697   -4.52348589126049    1.32667612678707
C          10.45631528167306   -5.67435130976076    1.97899847463252
C          11.69012185166624   -6.11536054677410    1.51846350533763
C          12.23470591019280   -5.28932173003147    0.50786775770947
S          11.20568542516069   -3.98354140404994    0.12364123919931
C          13.51943002003417   -5.76229363618947    0.17568846981229
C          13.80290978160962   -6.87837320417849    0.99904448542121
C          12.65861165687989   -7.13472414272862    1.86107179146898
C          12.56327839653197   -8.09671634405179    2.82408013526113
C          11.37231778363291   -8.34165850975207    3.54157969845099
N          10.40083983414139   -8.59007884062046    4.09627565978566
C          13.66584720277659   -8.90176529005396    3.17634938026668
N          14.58223980880408   -9.51407745493294    3.49700130560347
C          15.04994403639832   -7.42386911475011    0.77718150729378
C          15.76623588278615   -6.74923826810582   -0.21721180120571
S          14.81517310818349   -5.40810757728139   -0.87722044270137
C          17.05374287487703   -7.00120976452071   -0.70695510173321
C          17.96912875686812   -7.88475496581967   -0.17059901291085
C          19.26741063168740   -8.18401447799569   -0.64636191564486
C          19.97812091642079   -9.05420817855601    0.13730250118178
C          19.28154051687987   -9.47451771761762    1.28444227102927
S          17.68918636688381   -8.77063283089949    1.31190455515221
C          19.64306156810925  -10.22129445014050    2.40156592780461
C          20.83392554173965  -10.83875851990619    2.81660540944717
C          20.80881146136663  -11.24477984946372    4.12834007015898
C          19.61982117880241  -10.91704212270355    4.81280084183195
S          18.46653304001094  -10.26658215007705    3.69226899793997
C          19.32364768245958  -11.04695837854086    6.17060717284957
C          18.28213287105948  -10.43017299484954    6.84964499242448
C          17.51328374323474   -9.31902484902565    6.49372997705230
C          16.15150216991774   -9.15005347420343    7.04248444646874
O          15.62537795809545   -9.78261313644050    7.92927637628038
C          15.53711592438879   -8.04861041031501    6.23930673340050
C          16.50854102417362   -7.54743193890637    5.35757190325869
C          16.18202915888138   -6.57748618142676    4.42990393526506
C          14.88694473991010   -6.06061918016941    4.41177874080804
C          13.92596074173782   -6.54676317795247    5.31728481367657
C          14.25141893133869   -7.55607136872358    6.23515094457939
C          12.59972079277470   -6.04587810179976    5.32199684369672
N          11.50522194067702   -5.71384516931182    5.40006382126564
C          14.47575815996302   -5.01670880258474    3.43126918638541
O          13.32085637429583   -4.74060725454873    3.22516450753596
O          15.44198149722973   -4.38887889159018    2.74962182951275
C          17.77610082626616   -8.22561928701606    5.61769749986928
C          19.00178268686643   -7.75330269051381    5.18690139678685
C          20.23471428530840   -8.25269574604725    5.63996195578699
N          21.26685577087784   -8.60325567172398    6.00190187279145
C          19.14985956180686   -6.68518921250245    4.28938308359266
N          19.29698148972002   -5.84390491110417    3.51824294986525
H          -2.29498184650889    1.83903175422867    5.92936866847901
H          -2.27195068288386    4.20664392395208    4.83699324966908
H           1.97270364976934   -1.78362806461407    4.93841043441271
H           3.67769100105000    0.29756491800351    2.04686563399288
H           8.99453028982606   -2.20123721375619    0.08655072611510
H           9.88876661121275   -6.13876185109758    2.76530830531342
H          15.41003778210802   -8.29453522225738    1.28866999415555
H          17.37001185621682   -6.43254763458143   -1.57131668356912
H          19.64784200744419   -7.74132552916209   -1.55014235417481
H          20.98237886311255   -9.37644636627716   -0.07180741532773
H          21.68321485114057  -10.94720184653951    2.16602268433124
H          21.64303296651059  -11.69539623487228    4.63530993713343
H          19.95200269424048  -11.72475119055179    6.73358003441598
H          17.97887984359789  -10.88651927090952    7.78691959571110
H          16.91548502592797   -6.26338342567912    3.70379990681183
H          13.50502437555020   -7.93842767016382    6.91495454255756
H          16.33983662446442   -4.60405341732496    3.04076206221132
