156
 SCF done       -248.157381898588          0.000298789477
C           2.95334013230397   -1.24888592710321    3.69092455985179
C           1.84577444955552   -0.57064725715910    4.18329585334434
C           0.64398213342091   -0.69094099691579    3.51979766838320
C           0.54559882313947   -1.48635460504960    2.36810769224224
C           1.65194824489175   -2.16091114209891    1.87969408458259
C           2.85657898983829   -2.03398114789303    2.55260510301271
C          -0.82357532689746   -1.42897458620242    1.88563756189083
C          -1.56221568372299   -0.59852633469717    2.74177878787546
C          -0.68828045919785   -0.05950367970306    3.84980136311025
C          -0.60833923343633    1.47765776497124    3.80376981400896
C          -0.11122217827065    2.00309948822171    2.46250323909340
C          -1.19740721039706   -0.50792958380011    5.23213832849953
C          -1.31148071402433   -2.02263101046518    5.35559362859434
C          -2.89860630912247   -0.36929600113341    2.51448591001590
C          -3.52209299443168   -0.96624399819245    1.41468193979546
C          -2.77735585159245   -1.78903742125242    0.56920150018849
C          -1.43403196578307   -2.02835993817186    0.79639603059420
C          -4.94581129773095   -0.71812707740801    1.15584247783644
C          -5.85264168524050   -0.67735487734605    2.21955044295168
C          -7.18081570183169   -0.41489852283676    1.97258313535579
C          -7.62918492153775   -0.23180289130218    0.65369437113921
C          -6.73912444849740   -0.27713951768399   -0.40786034567227
C          -5.40267427074122   -0.51104806230465   -0.14645019940370
C          -9.06526174847759   -0.04700447361409    0.67339330350892
C          -9.50396195024619   -0.12168861655421    2.00518777254243
C          -8.33300288865232   -0.30765505494384    2.94666138364500
C          -8.24444084624095    0.97027235227304    3.81418359804780
C          -7.00579296470410    1.09493933471441    4.69139382871208
C          -8.48148294364197   -1.56956511467514    3.80956944516820
C          -8.69181016757820   -2.82411598784840    2.96944125166059
C         -10.83598679521407    0.01793085976994    2.30684501753074
C         -11.75786523547060    0.21132440005605    1.26927716216849
C         -11.30975866853931    0.30071674722785   -0.05202070539937
C          -9.96990437753519    0.17111129706243   -0.35515327461891
C         -13.15711778817077    0.39379724148657    1.59174837190537
C         -14.29617012830256   -0.00416735964359    0.91791433436763
C         -14.29416218615149   -0.94928141531311   -0.19415199583843
O         -13.34183762942724   -1.61211727951944   -0.54928256622763
C         -15.62167206388163   -1.08259775318522   -0.84456844942493
C         -16.79741284261786   -0.47222846335809   -0.33602850981392
C         -17.89668691159875   -0.76130439738399   -1.10789018039088
S         -17.52407824574159   -1.75496757224062   -2.46068777618276
C         -15.87099458428295   -1.79804429703932   -1.99027044270768
C         -14.88841376682455   -2.54479799022615   -2.83718573097968
F         -13.87689916114633   -1.77403892960836   -3.25015690318744
F         -14.36776274332447   -3.60937401536273   -2.22369672235910
F         -15.48282959072820   -3.00942809243204   -3.95330947552051
C         -19.31345317141691   -0.32924576812270   -0.89102436148321
F         -19.79757549564892   -0.71842395646164    0.29181740715037
F         -19.47859047360609    0.99196935491898   -0.98769002499307
F         -20.12055265444915   -0.87517726157787   -1.82197697800007
C         -16.81148885653654    0.37788208409722    0.88160983642988
O         -17.82162873135151    0.94479436290788    1.24418207445038
C         -15.50368956748228    0.49213181850812    1.51868137359070
C         -15.26780655700002    1.21334681325293    2.67512411567413
S         -13.56654300288700    1.32876259806634    2.99434929389935
C         -16.18488633297894    1.83146138482053    3.60923770493901
C         -15.84700625403863    3.07080876880446    4.17009754226467
C         -16.70692863177226    3.66231612244616    5.06152228879093
C         -17.90693706305400    3.02722063960668    5.41996796005182
C         -18.23094721776529    1.78576632209056    4.89274454594294
C         -17.36843324109102    1.19410322834311    3.99241143686904
C         -18.59910778330794    3.86539739818432    6.37692678524290
C         -17.82405564914166    5.01357006033827    6.61285146108781
C         -16.58588681766739    5.00794320474415    5.74441245144431
C         -16.65264469652114    6.08354306479716    4.63443893907422
C         -16.72899337259225    7.52823771248375    5.11035889096323
C         -15.29586858198300    5.12363479391491    6.56976053590714
C         -15.14900538714500    3.98826014016856    7.57661416698023
C         -18.22715255809313    5.93793331340405    7.54926708755494
C         -19.43871558216565    5.75654724150208    8.22326265995450
C         -20.21375999010830    4.62768352578197    7.95440548525634
C         -19.79738030720319    3.67277047547517    7.04652731659926
C         -19.88962088359943    6.75649344262893    9.19971188666720
C         -18.97822168631934    7.33599842944311   10.08718617232819
C         -19.41517879574399    8.28546872222713   10.98080569439136
C         -20.76146643015331    8.67970360922985   11.00398826125344
C         -21.67195466462817    8.10780021904730   10.13107110700071
C         -21.22791296520501    7.14897010991303    9.23855824440894
C         -20.92628645809135    9.69783165334985   12.02710873890974
C         -19.68065925864908    9.92513895602345   12.63145400615769
C         -18.61984418592485    9.03945752756199   12.02076620932714
C         -17.49602165335327    9.86995157425770   11.37429871924797
C         -18.01174663099137   10.83468581417106   10.31317127911065
C         -18.01815578785475    8.08322105967939   13.06737568072205
C         -19.07193506157604    7.22712994670721   13.75939993097607
C         -19.55472914596915   10.85572772383279   13.64001737371693
C         -20.68061053800991   11.56145275187653   14.04438152778743
C         -21.91143807690676   11.33667592095178   13.44768544027507
C         -22.04698323059127   10.40261633489458   12.43319693256719
H           3.90177588052913   -1.16326698688831    4.20109690308506
H           1.93295854774647    0.03899723486775    5.07123582343503
H           1.57932830869025   -2.77332464016609    0.99312293969877
H           3.73127294101534   -2.55225503072225    2.18715650947701
H           0.06147967897232    1.81716952352827    4.59689121870379
H          -1.60080037625523    1.88619407529688    4.00743964545936
H           0.88640143582873    1.62584826030019    2.24909186879399
H          -0.07352254082478    3.09012177519470    2.47607148044784
H          -0.77454899227348    1.69094513347922    1.65884662301410
H          -2.17543728126584   -0.05429670697825    5.40890609948555
H          -0.51309301051391   -0.13262290191189    5.99615013951671
H          -2.00373581242128   -2.41717707137279    4.61495305931563
H          -1.67331651583579   -2.29269048087687    6.34526100118087
H          -0.34288454142399   -2.49316868649195    5.20228426084060
H          -3.46380668526603    0.28640431882712    3.16131249157823
H          -3.26910319715673   -2.26567474932399   -0.26630454396125
H          -0.87502191836185   -2.67335408022953    0.13475685274061
H          -5.50205757001688   -0.88695139285189    3.21879291403732
H          -7.08283795315449   -0.13403457481846   -1.42130193674499
H          -4.69330295335505   -0.52427851491581   -0.96082701782438
H          -9.13450569819979    1.00336552731105    4.44679874802773
H          -8.28477799915073    1.83323582413313    3.14394038339421
H          -6.90252299489624    0.24252212349588    5.35766920347148
H          -7.08591544996424    1.99208160146492    5.30202329167782
H          -6.10991158044802    1.18052612508496    4.08291645891142
H          -9.32910053301890   -1.43681829644501    4.48559594488343
H          -7.58387953133159   -1.69539402909567    4.41669027042964
H          -9.59274489613677   -2.73906110740906    2.36608261788371
H          -8.78960076232044   -3.69481702229267    3.61395028905103
H          -7.84762408174275   -2.98312302305601    2.30209029012383
H         -11.18950759236387   -0.04111435429282    3.32670472915511
H         -12.01854303810926    0.49024863955492   -0.84212185111329
H          -9.63634660011943    0.24448438740264   -1.37862118106624
H         -14.92328651292031    3.55123769330543    3.87930701120600
H         -19.14200455411881    1.28415146755937    5.17994525588620
H         -17.60235542130054    0.22185860992689    3.58978267222837
H         -17.52907591139592    5.87174571473229    4.01658506730336
H         -15.76879088549714    5.96264355616915    4.00367666451560
H         -17.65063507787249    7.70950433205427    5.65613562388322
H         -16.71324928192242    8.19103463581355    4.24766585468880
H         -15.88432947970213    7.78368211920961    5.74502898196920
H         -15.29857376281914    6.07429815972463    7.10454578011001
H         -14.43998573634865    5.12161716204923    5.89128942412738
H         -15.99152674264867    3.97633548708503    8.26475430219989
H         -14.23451159785925    4.11229079967318    8.15246950195445
H         -15.10900462534181    3.02675066219896    7.06960851523375
H         -17.62956210866579    6.81076187713278    7.76452041765365
H         -21.13957421725391    4.48553155106571    8.49231251922428
H         -20.39353317518943    2.79089134564972    6.86607697418731
H         -17.94527796664455    7.01862520049980   10.07797749233099
H         -22.70979465802964    8.40619494351821   10.14023856153017
H         -21.92352563798926    6.71164120840533    8.53716098234321
H         -16.77118009926068    9.18792398608520   10.92387691504108
H         -16.98215142877674   10.43279770891606   12.15660804199838
H         -18.50754020639660   10.29341983226964    9.51024853772327
H         -17.18679080994023   11.40279162446536    9.88888946836452
H         -18.72504457491313   11.53292856331200   10.74532013327523
H         -17.48333496891058    8.67396088192201   13.81436860770637
H         -17.29229874865566    7.43406972684307   12.57240350330953
H         -19.79762951110847    7.85355391383605   14.27333424533212
H         -18.60252193633325    6.57238654181438   14.49025367040110
H         -19.60217828373116    6.61215107256182   13.03554973871228
H         -18.60039125905721   11.03911343515569   14.11256349458713
H         -20.59602095792939   12.29454932806546   14.83339973389645
H         -22.77387261219367   11.89723908042733   13.77818938953205
H         -23.00700679745526   10.22971754634214   11.96973450606767
