86
 SCF done       -166.926001935922          0.000730034167
C           2.02165746364341   -4.52639552001947   -6.83503165417875
C           2.05252036339759   -3.62773114747151   -7.90717737677386
C           0.80025587662722   -3.24008881491270   -8.31129674724922
S           0.32013170583884   -2.15065881028672   -9.58465423169679
C           1.92943258867742   -1.60010310191482  -10.22040091650397
S          -0.43995473792988   -3.98857168357896   -7.36421545130278
C           0.75127271067686   -4.83946722082155   -6.40432983229842
C           0.31324342511502   -5.69617253050085   -5.36033662719844
C           1.12993679807335   -6.40647209399309   -4.54486608207738
C           0.68255542041336   -7.26018511126596   -3.50327804923922
C          -0.60908933031490   -7.55108061669760   -3.09345331618748
C          -0.63422525841011   -8.44807576593104   -2.02785364476162
C           0.64686086267062   -8.85060389547725   -1.61282384782067
S           1.87981155169663   -8.11813208535066   -2.54106549537063
C           0.50797577769893   -9.76057761757649   -0.53619861105627
C          -0.86152673094957   -9.93604782121728   -0.27009952587563
C          -1.62420882714214   -9.11448097087245   -1.19348773206859
C          -2.98088017570255   -8.98844865689834   -1.26100203980056
C          -3.61141005735564   -8.15093381312614   -2.20438054472891
N          -4.12780111896794   -7.47086471764442   -2.96992790646368
C          -3.84260956593760   -9.68502717031712   -0.38817903352781
N          -4.54691407081173  -10.24914515620633    0.31956961668184
C          -1.10287259256770  -10.82601045955237    0.77670914602768
C           0.06836060328277  -11.32691091556810    1.31189534127436
S           1.49671323576610  -10.68604232062527    0.50550293641747
C           0.20546800606486  -12.24809770687625    2.38003765890450
C           1.37387623104281  -12.71623286246849    2.95230922040485
C           1.12291326272432  -13.61320004086016    3.99108760593529
C          -0.24760977337834  -13.83191914848083    4.20667672742779
S          -1.22842314658151  -12.93183117663758    3.13580676186070
C          -0.39705653248113  -14.74710368570898    5.27854011909878
C           0.87887253773319  -15.10467237793001    5.74469089469595
C           1.87662908445875  -14.40693239037450    4.94971668317014
C           3.23290503388143  -14.47967518972532    5.07686291684893
C           4.10505501850098  -13.75003643018115    4.24228921514201
N           4.81752755631871  -13.15762043220224    3.56652674933425
C           3.85240697421667  -15.28928520847041    6.05174884747886
N           4.35961206100500  -15.94592834993799    6.84345083799613
C           0.83550012648071  -16.00052142365200    6.81401226438580
C          -0.46132697123056  -16.32881713204622    7.16098639128791
S          -1.64925524677259  -15.51762641003766    6.14813071099592
C          -0.89042927718475  -17.19155327215476    8.20124898446613
C          -2.18650514142542  -17.54620665030900    8.52335905219705
C          -2.23539980509274  -18.40027300599172    9.62594686655711
C          -0.96586375274521  -18.69537497427383   10.14640954890600
S           0.28945963703882  -17.93082414093827    9.27678342629959
C          -1.12510290312324  -19.54934494917046   11.27029907630724
C          -2.49354058103721  -19.79169007999468   11.45682357075124
C          -3.23768442472967  -19.09022741889876   10.42466871289214
C          -4.58835082806439  -19.09398185735965   10.23251638499817
C          -5.19940283630113  -18.37513365803773    9.18401285656570
N          -5.69421530326886  -17.79254927264248    8.32909428318469
C          -5.46236586168043  -19.82588142077244   11.06309602482243
N          -6.17560919844150  -20.42521117295450   11.73193732394942
C          -2.75673244080352  -20.60874193302281   12.56155267628241
C          -1.60471598176984  -20.99414742695532   13.20750140877871
S          -0.16695306953382  -20.32799732048386   12.44835416598943
C          -1.46282225400637  -21.76461732138960   14.41644273961608
C          -0.38434008770540  -21.52896266412727   15.30908580453364
C          -0.46441523740231  -22.24655733558184   16.46357475911325
S           0.68736205791987  -22.18690651545220   17.77362512221487
C          -0.10293852331652  -23.28665687210860   18.98103959005309
S          -1.87896259062108  -23.25111580675257   16.48400118848184
C          -2.35712194010986  -22.70469049174322   14.89959626388588
C          -3.51124097741131  -23.34800338890929   14.32247663769727
C          -3.72372296317178  -23.56470509209692   13.02763161215660
H           2.91249327567698   -4.93285352183088   -6.39212104578982
H           2.96396585540852   -3.28388365893998   -8.36001148736051
H           1.70769158307843   -0.89293839310387  -11.01327969570508
H           2.47650249122796   -2.44794745317295  -10.62129108895494
H           2.48739743111656   -1.10862521653728   -9.42925471251134
H          -0.75753998101089   -5.76439552467925   -5.23178392990383
H           2.20121596956466   -6.34044293804218   -4.67184062396062
H          -1.48213126596640   -7.12742320837432   -3.55345129916938
H          -2.07513618769027  -11.10383522656372    1.14253574321074
H           2.34883086277753  -12.40733590007785    2.62013771566577
H           1.69353430313264  -16.40124977514647    7.32339247467903
H          -3.04075091622499  -17.19084386561211    7.97539458385346
H          -3.73708827860212  -20.89425548256568   12.89540869485368
H           0.40926683921729  -20.83162951696578   15.10959600450290
H           0.54496009557633  -23.29930199228246   19.85143806560541
H          -0.19065972434329  -24.28516722130028   18.56216444776348
H          -1.08066100860039  -22.89353884243967   19.24490388228621
H          -4.21401285088016  -23.73748655182553   15.04915012330292
H          -3.02847072633375  -23.24624185746799   12.27028296568064
H          -4.60590362293635  -24.07750183010622   12.68867912353798
