86
 SCF done       -158.892306566087          0.000682529094
C           1.15326934000933   -0.60911108256646   -4.11412210255338
C           1.31953696795189    0.49211396652122   -4.96223374362083
C           1.60963707023711    0.12945228691072   -6.25235694873653
S           1.90289489931795    1.12011921429327   -7.65747736691008
C           1.79691086363496    2.79055918869953   -6.95346243338590
S           1.68062486183930   -1.59055069462979   -6.43502324025093
C           1.31222707920372   -1.82569721610217   -4.73972265545756
C           1.23242316852468   -3.14756274276336   -4.22808665262238
C           0.96537275305563   -3.46695826720654   -2.93786190006337
C           0.90664343991247   -4.79137155663791   -2.43479090288680
C           1.09411370934043   -5.99451327893480   -3.09329337117174
C           0.97228270767216   -7.09116970103841   -2.24253640073427
C           0.68357739843641   -6.72833538039850   -0.90773681831692
S           0.56434275128408   -5.03245992920669   -0.72056738187738
C           0.59366214178603   -7.89665296442052   -0.12949476897542
C           0.82975062593845   -9.01149241450440   -0.96571163666885
C           1.06562791826444   -8.53299278502275   -2.32260025045248
C           1.31596164920756   -9.29265538770494   -3.43019901117591
C           1.52700114100246   -8.71704061131140   -4.69954180031629
N           1.69346955021939   -8.25370504179243   -5.73584864724214
C           1.37771049087657  -10.70030524349213   -3.38438915237962
N           1.43218494447903  -11.84598532904159   -3.36037743812833
C           0.78447024214522  -10.22251499412591   -0.30082775320420
C           0.50903916607283  -10.07314949729619    1.06141772205500
S           0.29981276682504   -8.36796060833103    1.48987814848463
C           0.38720231013022  -11.03333352967109    2.06869974265813
C           0.59223890618618  -12.39452921225072    1.97144396419391
C           0.44407558062589  -13.31920029884552    3.03000735791784
C           0.73010980931030  -14.61286483652213    2.69556034799215
C           1.12448877977862  -14.77642244924709    1.35513947999146
S           1.10798684570967  -13.23964476275125    0.52585488294462
C           1.50507585494860  -15.93728172641773    0.69494227156270
C           1.57237522959068  -17.24928519962007    1.20177082221069
C           2.00569156572150  -18.17656627746361    0.29620764575630
C           2.30763914208082  -17.64394866309643   -0.97595178967204
S           2.00765796667166  -15.91043412772826   -0.97361055701720
C           2.79124964025044  -18.20678130571774   -2.13914995942130
C           3.10327203670683  -19.53799754682111   -2.43054047463466
C           2.95245449435891  -20.71728391019057   -1.69612185538528
C           3.40609953546527  -21.82934420178832   -2.38258942702062
C           3.91778094982742  -21.53068265153342   -3.66333129965169
S           3.82438380928469  -19.86074578976548   -4.01505740524058
C           4.35409597978729  -22.73100761003790   -4.25973416968429
C           4.11774836822455  -23.79560478420734   -3.36694099080309
C           3.52126544691112  -23.26981946105107   -2.16299865225896
C           3.15398735710160  -23.95727424970818   -1.03856029952396
C           2.58669902682736  -23.31102667377310    0.07633490415074
N           2.12946791366558  -22.77907607495105    0.98483260936068
C           3.33233541426339  -25.34969563987538   -0.92086483283942
N           3.48496264288945  -26.48250377149121   -0.81987524347026
C           4.51585986080384  -25.03598191407871   -3.88432345344357
C           5.05990911731725  -24.92650082201154   -5.14205012512932
S           5.06381044288883  -23.26004376846451   -5.71992608136332
C           5.56938504496926  -25.95137707522347   -6.01161054923118
C           5.54051090407821  -25.81401024626711   -7.42353394525343
C           6.02640651549668  -26.90171820240672   -8.08228165630926
S           6.10691533068863  -27.07627869612383   -9.81697904152565
C           6.90564993380232  -28.69840603507561   -9.96825921257852
S           6.54832950800367  -28.13676187882840   -6.97820748786753
C           6.11178329129468  -27.16016484964657   -5.60265538558363
C           6.41094690739542  -27.61746375797863   -4.27693769731025
C           6.76172793943641  -28.86405454873491   -3.96584051134920
H           0.92266895205716   -0.50798451736963   -3.06931301022272
H           1.22780875419520    1.50945655887976   -4.62928472295536
H           1.99672687584693    3.47099826997087   -7.77504112587068
H           2.54930192215580    2.91004912282345   -6.17992493110328
H           0.79865377018132    2.96282221270716   -6.56287841437050
H           1.40831077597227   -3.93634916205546   -4.94543618149280
H           0.78781175027189   -2.68029468057921   -2.21822691331710
H           1.31202934286859   -6.06288797228586   -4.14277266451806
H           0.93231499088583  -11.17614844187415   -0.77045752646863
H           0.11111539820352  -10.66579393273178    3.04895617685454
H           0.13167804095786  -13.00221155318682    4.00943497187351
H           0.67219488395607  -15.44041924126731    3.37931625703546
H           1.30442655708234  -17.48306679658373    2.21653999953010
H           2.12022755755996  -19.21653068785977    0.53663407753741
H           2.96887295143010  -17.51099562550474   -2.95015464242128
H           2.51538697840483  -20.75136405125919   -0.71737132297480
H           4.37080968225390  -25.97424970556969   -3.38162009366571
H           5.15856194839980  -24.94570073806227   -7.92942053738655
H           6.99762943972422  -28.89442164554123  -11.03164877372580
H           6.28372377866526  -29.45480568164049   -9.49791802996323
H           7.88719748157056  -28.66567320523331   -9.50406932598864
H           6.35843321876857  -26.86271179982747   -3.50430634516441
H           6.81605240452249  -29.63874113032279   -4.71343534261033
H           6.99546549455881  -29.14647897652081   -2.95545699702457
