122
 SCF done       -229.139497625655          0.000572297733
C           4.30320259431135  -14.64634773363671   -1.49102060841600
C           5.39796772564750  -15.47879503316038   -1.23838713562900
C           6.50373580298278  -15.14946181232920   -1.98050917462757
S           8.03719120452763  -15.97491978970198   -1.91782033694501
C           8.99586172930825  -15.02592025941321   -3.13095862458011
S           6.19508897507904  -13.79030005744592   -3.00929364069074
C           4.55108277692398  -13.66834038861207   -2.42805414234471
C           3.71197828120308  -12.64771305492998   -2.95239502542300
C           2.42218406250064  -12.45092144657864   -2.59865187999497
C           1.58616135624745  -11.42846077086427   -3.13294863469077
C           1.87503810855624  -10.43774616872509   -4.03072582109252
C           0.77660849223132   -9.60427540685009   -4.34274576957534
C           0.75033407641215   -8.48253002806167   -5.19784575241890
C           1.90148688760127   -8.05266318659309   -5.96562625597244
C           2.29563925323770   -6.77272061732082   -6.23189338466512
C           3.43453615666877   -6.71158256165198   -7.06394300874580
C           3.91801354510255   -7.92596370574513   -7.45266439253036
S           2.95130607746968   -9.19009129119318   -6.76985976202373
C           5.08275908274502   -8.23276149091973   -8.32085152618238
Cl          4.14387932301398   -5.21543329206227   -7.53809109690905
C          -0.45624157803741   -7.79640743411291   -5.28223452691952
C          -1.62096176055183   -8.16732612908090   -4.56591619262134
C          -1.59608076700488   -9.28787069267853   -3.71019620997250
C          -0.39222487292554   -9.97961719150027   -3.63219752847365
S          -0.08964155182410  -11.36396157074535   -2.62238450222888
C          -2.75086041129588   -9.70626964865669   -2.94200064642998
C          -3.16420943508720  -10.98085610635441   -2.67803538548810
C          -4.31097999735924  -11.02422527471576   -1.85625389962232
C          -4.78063001934853   -9.80217740480215   -1.47224077141312
S          -3.78919220719578   -8.55346553455860   -2.14426662089262
C          -5.95023150622222   -9.47523783993747   -0.61899650601917
Cl         -5.04707762626635  -12.50920979070943   -1.38796611039068
C          -2.72263194333298   -7.33805572735945   -4.88130189020419
C          -2.43410282696752   -6.36296795047347   -5.79384237582766
S          -0.76282661428477   -6.42409838226370   -6.31221685508116
C          -3.32299667325743   -5.37514009990026   -6.30370455467681
C          -4.58316254017975   -5.06630818397325   -5.82852968789920
C          -5.18314244729321   -4.04616313583389   -6.56837141577656
C          -4.37433565267193   -3.58233220241829   -7.61702141263989
S          -2.87204698660040   -4.39095971501452   -7.68410471084937
C          -5.07614592744573   -2.55913028614048   -8.30783449559409
C          -6.32030021399634   -2.36917361531026   -7.68722850347931
C          -6.43113128129098   -3.29777389868931   -6.57445012763447
C          -7.48295743479006   -3.44463421193322   -5.71807781721282
C          -7.47493981802383   -4.39680302142402   -4.67760724637373
N          -7.47394693052589   -5.17448583839785   -3.83438839546356
C          -8.64993063873305   -2.65806699609288   -5.81547608528121
N          -9.60339504983489   -2.02494148487385   -5.88711912250700
C          -7.08946387559050   -1.37829451812670   -8.30413979325217
C          -6.44452489288112   -0.82560677812066   -9.39012855979541
S          -4.85596176039915   -1.53276601917832   -9.65401179707842
C          -6.92304388176100    0.18788865975091  -10.26578453701262
C          -6.33843968520607    0.64728359403628  -11.41000154416847
C          -7.08452046472800    1.65730914226379  -12.06419137617455
C          -6.78528734533164    2.30378901135836  -13.27947178168899
C          -5.63935708735596    1.90739554881202  -14.07281067717587
C          -5.20541225032549    0.64166602586703  -14.34361948842791
C          -4.04708827023890    0.62465582868183  -15.15063060324938
C          -3.58283568560246    1.85925889738539  -15.49846775448263
S          -4.60185470844178    3.08719464579312  -14.82586261876758
C          -2.39982459306656    2.21161621098914  -16.32338579532080
Cl         -3.29579817374618   -0.84554907472567  -15.64490452455574
C          -7.65573747524857    3.31197452025859  -13.67646177596143
C          -8.81574980948523    3.66818498564033  -12.94736816188000
C          -9.14755974808944    2.98312179927553  -11.76239576126156
C          -8.25576671522807    1.99970781463513  -11.34536242534963
S          -8.43405479541625    1.00740967251284   -9.92258741385854
C         -10.36462698036543    3.25363694419946  -11.02383754179660
C         -10.54685798726739    3.25776320356691   -9.67114140233816
C         -11.88649785253330    3.50540626551998   -9.29912274947668
C         -12.74228803421476    3.67936866449544  -10.34672073104961
S         -11.87872615571675    3.54557790082072  -11.84077767320845
C         -14.20183058937361    3.94982756052714  -10.32547865047997
Cl        -12.38105299868427    3.58097470398487   -7.65158790505757
C          -9.51559031198776    4.73724812869923  -13.56365901062310
C          -8.96397824075477    5.15228812073427  -14.73640986066828
S          -7.50622961829048    4.26297135687224  -15.12577717030583
C          -9.40711808044554    6.19852330267461  -15.62210033317947
C          -8.50258335649445    6.94634900418563  -16.41626912029674
C          -9.11033820305611    7.91525690238029  -17.15570092630780
S          -8.29545595635430    9.03529503491195  -18.21776100578553
C          -9.70466165924083    9.93518010369885  -18.92307076965041
S         -10.82854803371326    7.93047514298647  -16.90088568441818
C         -10.72347523473905    6.59721122387569  -15.78422735043947
C         -11.91690526602587    6.01351950951163  -15.24263924954601
C         -13.12439080380775    6.57272587711423  -15.29166847210689
H           3.35476612709967  -14.75927155500889   -0.99876228128950
H           5.39283866619857  -16.29566001471473   -0.54024846106338
H           9.98281148245960  -15.47592618816381   -3.16087323945248
H           9.06258826091713  -13.99005856632528   -2.81054875985563
H           8.51924770041232  -15.09562070479812   -4.10466521403553
H           4.16571538372770  -12.00003636462247   -3.68965604197174
H           1.96083323488582  -13.10092924604588   -1.86922051753263
H           2.85492163822531  -10.29837651627716   -4.44550561885127
H           1.82273765829581   -5.89811279461435   -5.82588668801824
H           5.59996228216862   -7.31128512823513   -8.57643831177344
H           4.75899156834993   -8.72147006247924   -9.23974372000420
H           5.77625271659550   -8.90126030474463   -7.81216803031512
H          -2.69942480531581  -11.86196854513899   -3.07927540970629
H          -6.50956681963460  -10.38180816294008   -0.40131177129593
H          -6.60347273215809   -8.76326510404793   -1.12153614067824
H          -5.62694558616553   -9.02734343104389    0.32085663844750
H          -3.70486989037564   -7.47251464339183   -4.47069060303793
H          -5.02624999772007   -5.55404918386484   -4.98050055106026
H          -8.07165485499159   -1.06903409204412   -7.99458317962832
H          -5.39101724586185    0.28261753949239  -11.76351505909956
H          -5.71128869381537   -0.25003185822200  -14.02252449850569
H          -1.89787715641446    1.30463350338229  -16.65102837640510
H          -1.69861166283063    2.81722286193381  -15.75012925026718
H          -2.70106777892262    2.78632676963388  -17.19854806937598
H          -9.75791363927686    3.12620999151601   -8.95451691650975
H         -14.53621579394027    4.06440980125031   -9.29747059483648
H         -14.75154746177319    3.12885407298664  -10.78561790172331
H         -14.43194240116875    4.85974300445814  -10.87858934554707
H         -10.36597215278600    5.21789053453177  -13.11884197230511
H          -7.44143789546465    6.77569917942527  -16.42611814324005
H          -9.28865384930830   10.65450936829176  -19.62086324174409
H         -10.24280806529153   10.44681077092931  -18.13015825941523
H         -10.35741214916221    9.23945750463614  -19.44237315713856
H         -11.78853018003484    5.04092874220381  -14.78679679060166
H         -13.28070334081048    7.54407450307838  -15.73218529042385
H         -13.98940678490022    6.07748286487564  -14.88881366528990
