96
 SCF done       -162.701988027997          0.000472129289
C           7.88499518726114   -2.80803156338021    4.95186992016913
C           9.10072682315017   -2.30713160563339    4.49070510635249
C           9.54937625751349   -2.94531815299687    3.35618672942946
S          11.02390175257930   -2.56727508641291    2.51914052845297
C          10.92979009603244   -3.70209854580241    1.10773228400578
S           8.45936921583485   -4.19329831049586    2.85403312189321
C           7.38101824417533   -3.84299835324229    4.18560594064255
C           6.18072272955405   -4.58206704184507    4.30158571065234
C           5.25972753427085   -4.42200515617269    5.29073083554088
C           4.02887980913984   -5.11505491037133    5.38909052604092
C           3.32784884495049   -5.32143877426492    6.55273522147930
C           2.25649070313561   -6.22849808955839    6.28220227609170
C           1.31957561966928   -6.66955574319147    7.22291213964472
N           0.55701572811784   -7.03957108624187    7.99860313335510
C           2.29710802640817   -6.60103917894043    4.94779087209864
C           3.34739102632704   -5.88933122202774    4.32289304291515
C           3.54275705644016   -5.76101199805893    2.95426191383572
C           3.13789677942294   -6.70157367598569    1.89387844007895
C           3.26028566189796   -6.03420834180906    0.69022900233708
C           3.76332073872076   -4.72551007330649    0.94048469738853
C           3.96387392887305   -4.57257206448292    2.30343318952863
C           4.01636351438671   -3.76199236703786   -0.04069258924394
N           4.22876651951363   -2.98398862550912   -0.85952027725947
C           2.86236353620755   -8.08187478950645    1.99975108110339
C           3.13649079289602   -8.86788103324101    3.08004136778337
C           2.86850667338713  -10.25138639115721    3.19892436889206
C           2.30821131049163  -11.04863091007476    2.21269228134630
C           2.07396464550471  -12.40476810185705    2.33198405605465
C           2.37108470804487  -13.13761506579660    3.55773810288934
C           2.90914964488078  -12.57036025179629    4.66183159437347
S           3.32217441535224  -10.91099244613430    4.76034312971550
C           2.03141694811813  -14.49317123062519    3.28012737852027
C           1.59843526678786  -14.62399826067351    1.95823811302378
C           1.26435153686223  -15.96248254146359    1.65033326710945
C           1.44913777931956  -16.78521353982265    2.71565877826483
S           2.03550865698886  -15.98195723074840    4.13119641244506
C           1.61300348016216  -13.32404991320328    1.33666085756193
C           1.38489908588206  -12.95621649636142    0.01194293148823
C           1.19841042943342  -13.79205349603388   -1.06825989855247
C           1.25749482138182  -13.39135423867702   -2.40602392115658
C           0.73738092538020  -14.11021970669164   -3.47471281936365
C           0.79954876421821  -13.30022384464462   -4.62967014657004
C           0.36783213029287  -13.68257124215896   -5.90617478366307
N           0.01143431112949  -13.99889569524231   -6.95098252532191
C           1.36585521523344  -12.06377585275778   -4.30335858434826
C           1.73163241907093  -12.08722195829054   -2.94899740138828
C           2.53144049938633  -11.15168821994497   -2.29773564002826
C           2.64757656132521   -9.71902777348332   -2.61883456340998
C           3.59097271843387   -9.18688283215847   -1.77550421217919
C           4.10266067600179  -10.23213858908951   -0.93652791761820
C           3.45734728340101  -11.41394834784787   -1.25077392484843
C           5.03592308852003  -10.06041964623125    0.08799367565220
N           5.75877104578313   -9.91268905735965    0.97046052891626
C           1.79776359899207   -9.02381795464276   -3.53114974594290
C           2.01568423208074   -7.76449516291779   -3.96941291446798
C           1.18790273888501   -7.07304400963474   -4.91462489955831
C           0.25699891715735   -7.70440482600562   -5.78225546062937
C          -0.31328401112883   -6.85646664077725   -6.68092009588292
S          -1.49414465392671   -7.30583640757615   -7.88511331602281
C          -1.72915588146969   -5.72993190115288   -8.75329225392390
S           0.27395283322996   -5.22975918104676   -6.49111786572750
C           1.29296760721763   -5.70957746115588   -5.16715560973561
C           2.05143693127902   -4.69080989009833   -4.49392358018290
C           2.38010481613901   -4.69748948357454   -3.20319738046999
H           7.38294666610569   -2.42556020645362    5.82164344901377
H           9.64445977245622   -1.50404223378574    4.95339580771919
H          11.81780298867745   -3.52269121028564    0.51043318456623
H          10.03605840774891   -3.48692623933760    0.52894721268961
H          10.91677586122054   -4.72764436604724    1.46582458104584
H           6.01263456252597   -5.32725916603182    3.53614971553182
H           5.48997735063084   -3.76502897135153    6.11976086888687
H           3.55823543979628   -4.91959318204799    7.52151516898661
H           1.56975134192183   -7.21169064365681    4.44748501021731
H           3.05360058450934   -6.43824333205707   -0.28298930605141
H           4.25973375884306   -3.66408286632197    2.79235235525549
H           2.46478762349600   -8.53157666099431    1.09844594441021
H           3.61967378875741   -8.41727837864788    3.93570675816506
H           2.06396581620118  -10.56261084119341    1.27999839162247
H           3.13389738090146  -13.13281321301259    5.55401145573555
H           0.90077577811206  -16.31568947619475    0.70322761552052
H           1.27457465587019  -17.84219319826921    2.76432358424080
H           1.41770870625119  -11.89586902445826   -0.19297264427031
H           0.96820710069819  -14.83439067721825   -0.89509879029069
H           0.30233001741612  -15.09108893567678   -3.42969466347688
H           1.61592537696753  -11.29991430758781   -5.01478519360871
H           3.91000019063442   -8.16324603392873   -1.71798431671404
H           3.68912334596700  -12.37986946325143   -0.84405361906494
H           0.91367643036660   -9.55170947242240   -3.85839297933614
H           2.89368083484682   -7.22933821533328   -3.63607593538973
H           0.03256349074311   -8.75472325226123   -5.76964872710121
H          -2.44802112386674   -5.92206095615034   -9.54304907402058
H          -0.78366113082197   -5.40286750726146   -9.17622364056828
H          -2.11823127907778   -4.98723548521127   -8.06253448125553
H           2.32152480222408   -3.83979610437732   -5.10726886360785
H           2.05447529856524   -5.48009669889996   -2.53909609479745
H           2.95671786656805   -3.90104809195728   -2.76632300529672
