92
 SCF done       -193.891593918279          0.000865521322
C           6.43033522495967   -2.67189495250309    0.66236747430695
O           5.57019794463674   -3.67060307434121    0.78793577713297
C           4.50512810239147   -3.41062002957203   -0.01244218988120
C           4.70081375114719   -2.19611716741598   -0.67073079441803
C           5.96837982464375   -1.72148298740591   -0.21906328103057
C           6.73723522996557   -0.48997649072155   -0.53981022357030
F           7.89828422064880   -0.45572277466401    0.13110644462664
F           7.05858980992974   -0.37630208379585   -1.84251867601148
F           6.09058337307205    0.64739419676862   -0.21908044153167
O           3.78202545640227   -1.71543855331093   -1.51884734986957
C           4.01731125352179   -0.50320229545751   -2.20927303246524
C           3.39660738725875   -4.29606552764004   -0.10838727370103
C           3.30052776973081   -5.45844801165651    0.57731270797930
C           2.20658600725869   -6.35943795554485    0.49707922339375
C           1.04742784273252   -6.27402438999334   -0.25424750334110
C           0.20877121765893   -7.37049404760892   -0.06223212792215
C           0.73144101795061   -8.31082207525052    0.85283759030327
S           2.25234250663986   -7.83057292878076    1.46564227110358
C          -0.17931997542921   -9.37833715574311    0.97754255279686
C          -1.28605111693343   -9.12050020115278    0.13938884096600
C          -1.08443344336556   -7.83736856120695   -0.52166378785425
C          -1.95252794336199   -7.19779222724662   -1.35863973425359
C          -3.23608352237453   -7.69586213285711   -1.66560868479618
N          -4.30217180088158   -8.05159449098567   -1.89620805018533
C          -1.64694716898120   -5.94702837229276   -1.93532995537033
N          -1.40794227125471   -4.92518957411308   -2.39817045883525
C          -2.23484971949991  -10.12582523023404    0.15121092566106
C          -1.88827582688866  -11.17661911002230    1.00432324454421
S          -0.34309167741998  -10.86444635041965    1.80909095370189
C          -2.56262514693247  -12.37185866960117    1.27973044955297
C          -3.65830751063580  -12.87227033468599    0.60852237201275
C          -4.35487910982229  -14.06639417362611    0.90946882362252
C          -5.37972674177305  -14.35536421851977    0.05205249592899
C          -5.53478418662247  -13.40911398024142   -0.97766253205422
S          -4.35968601738650  -12.12995879026074   -0.81221951456994
C          -6.42443195224123  -13.36200102805670   -2.04122609109404
C          -7.49892450400530  -14.20388857664189   -2.38057209673221
C          -8.15593490327619  -13.81996028547877   -3.51624394681782
C          -7.62574772725074  -12.66464822881769   -4.13797304285427
S          -6.26292732872525  -12.07746403103937   -3.21293973952483
C          -8.10575540698311  -12.06389633190057   -5.28259397222943
C          -7.57330144069875  -10.94872872811520   -5.93968832817675
C          -6.39245282291990  -10.23795765215153   -5.70345560542691
C          -6.22025915632109   -9.19213712275809   -6.59138195776182
C          -7.27099319134550   -9.06566616618090   -7.52462654948519
S          -8.46529776897892  -10.27229403806018   -7.30812830013273
C          -6.99622679993380   -7.96418815460109   -8.35884264491127
C          -5.77095109022139   -7.38657948331635   -7.96061013444452
C          -5.23987043132541   -8.14062123450903   -6.84585929748556
C          -4.06316611667879   -7.93613424986473   -6.18408776052330
C          -3.19793257518294   -6.86559412924044   -6.49653250875461
N          -2.48364818967947   -5.99921746421790   -6.72938426963716
C          -3.59082960414818   -8.78441104145412   -5.16158003161011
N          -3.15404456326757   -9.46962483094270   -4.35129496838516
C          -5.40811990151974   -6.28806488301440   -8.74333905059773
C          -6.33752017885872   -6.03096465172006   -9.72829434697434
S          -7.70102447795575   -7.14480142968578   -9.68098917273906
C          -6.38670928235790   -4.99057156977997  -10.70268328572972
O          -7.59646555901280   -4.64540726371045  -11.16749662585154
C          -7.45427100912300   -3.60209281013566  -12.01677708292415
C          -6.10956027258838   -3.26711764136999  -12.12060692035418
C          -5.40980915043567   -4.18800811323632  -11.28782513565886
C          -3.94455788672524   -4.39776514494048  -11.16500544972829
F          -3.63189764473388   -5.66493206748357  -10.85037763741938
F          -3.28400921974781   -4.14876304525161  -12.30893588786387
F          -3.36292519363002   -3.62217779600649  -10.22528813019053
O          -5.70105830652928   -2.24326007746229  -12.88945614442219
C          -4.49339056551537   -1.56768356749346  -12.57797744275798
C          -8.58410773866768   -3.00480991603540  -12.66766075175438
C          -9.84220068760800   -3.41173465756061  -12.51056151081970
H           7.34150929080861   -2.70670482813631    1.22634217399890
H           3.13418424578710   -0.35356577285338   -2.82768789356457
H           4.89866312424146   -0.57164146451173   -2.85093382430217
H           4.12081319190633    0.33845828926237   -1.52088466349583
H           2.62090919418309   -3.96812751411957   -0.78212055493405
H           4.10673354637947   -5.73987362921234    1.24094028335565
H           0.83288112690693   -5.45116954675191   -0.91028807661197
H          -3.14644085375797  -10.09181753857920   -0.41354214331348
H          -2.16683672844597  -12.97961128713731    2.08306507271948
H          -4.07906920479914  -14.67782270568901    1.75069421128057
H          -6.00915949904671  -15.22384445647598    0.12957611459909
H          -7.76687974631462  -15.05725976307625   -1.78354758603114
H          -9.00506899218065  -14.33649573028708   -3.92812147585469
H          -8.99857040415750  -12.49677162705321   -5.71509037743853
H          -5.69156328808503  -10.48703940697542   -4.93013971617487
H          -4.52552179574272   -5.69716863386019   -8.58524538422831
H          -4.63907056905688   -0.53808336590198  -12.90437543287324
H          -3.65090107761088   -1.99852756162042  -13.12241455264112
H          -4.28711750336434   -1.57991888021607  -11.50611872639431
H          -8.32802795765581   -2.17522741180519  -13.31013257244332
H         -10.08529770144079   -4.24235700198720  -11.87046101698430
H         -10.65665051123863   -2.92685802889730  -13.01749457259612
