146
 SCF done       -256.189926059133          0.003472382874
C          -6.35785843428917   -5.59234813742573   -5.81628266210363
C          -5.76605916547935   -4.63768322351246   -6.64514960652435
C          -6.02185717492818   -4.75408147654025   -8.09972067361229
O          -6.81938591858855   -5.55428474737521   -8.54411321500008
C          -5.26575208866901   -3.86191896728932   -9.01806414115540
C          -5.35881476718482   -2.50446657640849   -9.04366059718150
S          -4.50661794264232   -1.81601332193831  -10.37124008347084
C          -4.02686599155283   -3.36662719883775  -10.91538620431003
C          -4.48620640327096   -4.36789020285047  -10.10939913923663
C          -4.17730151744697   -5.79665328430210  -10.32862489191256
O          -4.01278722638592   -6.26662327745654  -11.43369524900481
C          -4.07351137718631   -6.60343198959412   -9.08349970124275
C          -4.62434822588311   -7.88064901410188   -9.05013020263497
C          -4.57596962374702   -8.62453577939815   -7.88662500341692
C          -3.95062580687844   -8.11380982830073   -6.76012003906202
C          -3.36376129046042   -6.86028583184037   -6.80075361785770
C          -3.43216924540864   -6.10075710347856   -7.95438506125245
C          -4.94978702367408   -3.66068202974648   -6.08063087594852
C          -4.78334415356274   -3.60906873680712   -4.71150995013776
C          -5.39498914202271   -4.54717259213871   -3.88243675791360
C          -6.16036636284540   -5.56124576703987   -4.45403961741816
C          -5.25188481351747   -4.44926997615106   -2.42165127362810
C          -5.51348056930368   -3.24031323808523   -1.76073182702350
C          -6.02636613022006   -2.03895448121835   -2.46229844320991
O          -5.58252223484537   -0.93063242310184   -2.23512804901710
C          -7.14709635152706   -2.30468600435911   -3.39276841344238
C          -8.07556400055290   -3.27718861837500   -3.14028783973823
S          -9.22164377550540   -3.44846148427081   -4.39761631475062
C          -8.43554075172653   -2.23120660566403   -5.31357325609962
C          -7.37824017482756   -1.67609544710741   -4.65787044981410
C          -6.54401422069909   -0.62047342504937   -5.29135088024696
O          -6.10592971496630   -0.77864871129075   -6.41518717408819
C          -6.31352405309962    0.61105407264519   -4.51657443676643
C          -7.16264407267675    0.99860964181189   -3.48107079355354
C          -6.91559700543065    2.16829710350976   -2.79044135264845
C          -5.82533461791902    2.95799335890683   -3.12358707637350
C          -4.98273403913888    2.58407506131352   -4.15787536722136
C          -5.22927173157972    1.41923553909931   -4.85695644931493
C          -5.28493403699585   -3.15256402670117   -0.38972997763934
C          -4.84824705604381   -4.24108686646745    0.32892987928291
C          -4.62097482758335   -5.46892952018795   -0.30701221853097
C          -4.81771746076175   -5.54142415985001   -1.68787524836655
C          -4.18016621217864   -6.62676549542243    0.45258796813625
C          -4.43527025836076   -6.76969898840697    1.78503099885485
C          -4.03668255791930   -7.85344687590291    2.57810926241519
C          -3.39030948494139   -9.03236675245458    1.97734542243414
C          -3.03307014407825   -9.10625562801859    0.67826607430705
S          -3.29308294744135   -7.84659646510405   -0.45989838430233
C          -3.27754743850221   -9.97323274740030    3.03524405607761
C          -3.81508198392238   -9.43015386744464    4.20646710103622
C          -3.73902559063807  -10.32508652903212    5.29677916756247
C          -3.15683945527983  -11.49680455523437    4.93414836609217
S          -2.67586981325871  -11.56622292432708    3.26880742069364
C          -4.26213324202258   -8.09230813349878    3.93467602097336
C          -4.80955245954490   -7.18776150156940    4.90367985159195
C          -4.63946353821724   -5.85566746454478    4.84456869489319
C          -5.22910710278678   -4.85046215746797    5.70621816966277
C          -5.68619752509350   -5.08533391658836    7.01304688114924
C          -5.43818139260299   -6.35293925197776    7.74350460788377
O          -6.32559459669600   -6.99923902367567    8.26610518232937
C          -4.02763351230774   -6.75734561633466    7.86873314807827
C          -2.92477307665972   -6.05056539008603    7.47540457048370
S          -1.47203419513110   -6.90311872111411    7.75680174670791
C          -2.34019360413242   -8.24181028217751    8.41805944947256
C          -3.67688413557932   -8.02311405438208    8.43729022663271
C          -4.71082035194779   -8.97231160032747    8.95408612427449
O          -5.02204076985547   -9.96150300305216    8.32713854992882
C          -5.28615352453318   -8.62610555256863   10.26977474589521
C          -6.44036559393476   -9.28839544593730   10.68532805336003
C          -7.01887757360512   -8.98134529849930   11.90054608300963
C          -6.44424854147147   -8.01973196365065   12.71713467794450
C          -5.29110159537200   -7.36435568984121   12.31451400557981
C          -4.71357118464578   -7.65955477656069   11.09466695117762
C          -6.35708836480487   -4.08224467010233    7.70421644172892
C          -6.53379556785696   -2.82956726457476    7.15039347100920
C          -6.03923548177792   -2.56660134471335    5.87741735044914
C          -5.40656133162172   -3.57378296251221    5.16954626104104
C          -6.18533284834846   -1.23684462136026    5.25204941387905
C          -5.37052973627254   -0.16739767200811    5.63506365966755
C          -4.29190106505416   -0.35812605414303    6.63963244429468
O          -4.43937550681234   -0.91576514489247    7.70538334070832
C          -2.98965730647339    0.21805256478217    6.22949824897915
C          -2.08865223340127    0.71915750663832    7.12498115089909
S          -0.70059420559053    1.37166357319136    6.36769115992950
C          -1.31870540078097    0.96482606338642    4.81543187864273
C          -2.53714547627627    0.35960046102939    4.87782602334750
C          -3.22330642538627   -0.22769911073440    3.69582345342528
O          -3.50898936562866   -1.40932668345618    3.67461132666738
C          -3.51443936923262    0.67052574430195    2.55899177486591
C          -3.36316412832240    2.05424937377760    2.62098411425790
C          -3.70796250087797    2.83521179802013    1.53370368680794
C          -4.21130956222705    2.24926573284944    0.38344880422953
C          -4.36144508201536    0.87222835945224    0.30661066246502
C          -4.01024227535069    0.09224991512681    1.38908921706817
C          -5.52534675731788    1.07265237094246    5.01988652442478
C          -6.46001338749800    1.24950748822587    4.01688875375821
C          -7.22721615516339    0.17509079079638    3.59637249262293
C          -7.08984252635041   -1.05590163739057    4.21198618732110
H          -6.97360955132371   -6.35274496426579   -6.27261807778054
H          -5.89131057468629   -1.86413601758229   -8.36778207230010
H          -3.40966212967758   -3.47368510747866  -11.78529959776825
H          -5.10790406345324   -8.26239486392205   -9.93613083890314
H          -5.02582473077873   -9.60572633219855   -7.85722851783121
H          -3.91435321793140   -8.69524112911778   -5.85050544384895
H          -2.86333334801087   -6.46656600699495   -5.92794339188561
H          -2.96903322252907   -5.12463370108399   -7.98586103501062
H          -4.46365799829970   -2.92726554360657   -6.70323008979578
H          -4.16702404858724   -2.83671455336674   -4.27273748662344
H          -6.62790209997534   -6.29893504621062   -3.81839067441809
H          -8.14833466661829   -3.89294374224540   -2.26500848598487
H          -8.81035458189323   -1.96149829628327   -6.28116175134382
H          -8.01657838256112    0.38823917787274   -3.22588497802400
H          -7.57108723962947    2.46603332465780   -1.98536885865600
H          -5.63719928269680    3.87244445315659   -2.57948966978805
H          -4.13546264736370    3.20132998463485   -4.41864677773038
H          -4.58576016090784    1.10821341227014   -5.66653143326062
H          -5.47890171240162   -2.21178882173306    0.10325208855864
H          -4.65879856501980   -4.13136862680631    1.38478091535217
H          -4.61735544558184   -6.46786187439493   -2.20608981630824
H          -5.04533464213052   -6.01327842987062    2.25676462124541
H          -2.54459902252902   -9.96980666318546    0.25490978119818
H          -4.11069179694345  -10.13476444247573    6.28763503067482
H          -2.97253883837311  -12.35644213550930    5.54816286969216
H          -5.36858124618235   -7.64082149898175    5.71191586951898
H          -4.03280484682426   -5.44971632760859    4.04542670195664
H          -2.88936924057222   -5.07191881937805    7.03928733394075
H          -1.80588785101803   -9.10055589841499    8.77250163153280
H          -6.87363847656082  -10.02858475708673   10.02994441419388
H          -7.92013937737743   -9.48754727865908   12.21339170985104
H          -6.89580930668967   -7.77812779065894   13.66828719019265
H          -4.84405667338966   -6.61696719392767   12.95382387134553
H          -3.81512684639620   -7.14487732492192   10.78542055986579
H          -6.71633476303896   -4.29302400075547    8.70070421383165
H          -7.03955530877567   -2.05438506447534    7.70420987534047
H          -5.02812948101197   -3.35433176254497    4.18202623279025
H          -2.19131438751662    0.75292788413524    8.19118190377976
H          -0.72808099017533    1.16340686232988    3.94213132870430
H          -2.98730279063181    2.52174538140655    3.51863721250623
H          -3.58762623303089    3.90726738118579    1.58326301926189
H          -4.48581147517181    2.86140730195625   -0.46251582867212
H          -4.74750264708971    0.41991954365745   -0.59386698412461
H          -4.10523664480616   -0.98260725209462    1.36141719860070
H          -4.91683886397268    1.90591093833917    5.34453760267010
H          -6.57283256716487    2.21599544989692    3.54937471839069
H          -7.93196368065790    0.29860182973947    2.78700412584221
H          -7.69114835980945   -1.89423693346741    3.89081088470158
