123
 SCF done       -198.653249667113          0.000499735980
C          -2.57146823792896    0.73670119635589    0.94845788787484
C          -2.62978922880095    2.07557861583732    1.11709802932498
C          -3.73792632524878    2.74873781819435    1.67468358630613
C          -4.87506842858623    1.96903534243249    2.19577233951682
C          -5.00121890624307    0.62741317310693    2.10200911647288
S          -3.82570166451380   -0.38570698225120    1.36889168498822
C          -5.75048276411887    2.92348806892828    2.78178099612188
C          -5.20990349980967    4.19790895186906    2.63827498240774
C          -6.03961134427866    5.19489183020259    3.19612650041020
C          -7.16429045482941    4.66094384289794    3.74093801600433
S          -7.26613134928581    2.93849982660141    3.59740064664127
C          -3.95719706996046    4.10333701400207    1.92575254965255
C          -3.18853510047313    5.25616149680044    1.59192973329795
C          -2.25012615415400    5.35925473246890    0.62475407373152
C          -1.51925296353147    6.54989995956014    0.33594432792557
C          -1.51434087688716    7.76006288820412    0.97146719267868
C          -0.65555433144029    8.71725952712199    0.37870829385727
C           0.02097318589485    8.19846155751082   -0.75729149482590
S          -0.42923953409184    6.54123927851457   -1.04631020286859
C           0.90325892528221    8.94726849167650   -1.50250995047190
C           1.12857896926748   10.26723693260289   -1.11345463839927
C           0.45531178893898   10.78509898192498    0.02194944872234
C          -0.42523054759932   10.03635949016517    0.76953052795891
S           0.89508839296833   12.44505110378393    0.30424491875913
C           1.96794594257857   12.44653268451589   -1.09092915564281
C           1.97397892524464   11.23500558964041   -1.71464305358070
C           2.69544756764579   13.64814633394916   -1.43587434781357
C           3.50802865886730   13.69208063826610   -2.57853149400068
C           4.19102358841397   14.84513942364959   -2.87772441687696
C           4.07834192429261   15.98009643208783   -2.05916844454867
C           3.27264423483458   15.95062266042339   -0.93129577923218
C           2.59166397430445   14.78844279105981   -0.63164988874140
C           4.92350208297632   17.02278495207458   -2.60122072559939
C           5.56302602902655   16.53136758182537   -3.75226111829147
C           5.08689338989851   15.13047133663899   -4.06565877954880
C           6.24454725560297   14.12868655840314   -4.17690730895273
C           7.06612082236983   14.04998265923986   -2.89524102296354
C           4.18494420023857   15.10407381322053   -5.32261621612788
C           4.83998132371565   15.55761902577358   -6.62047110305533
C           6.49892565807138   17.30130323600596   -4.40134420035235
C           6.76664042352706   18.60308050172486   -3.95474494724538
C           6.09798852050049   19.08514939779710   -2.82521642823690
C           5.19113728604087   18.30228121750597   -2.13933835607569
C           7.74437499353341   19.39661969915503   -4.67653477368295
C           7.85855995943974   20.72974622286284   -4.62006007610592
C           8.82704796227465   21.49015895856593   -5.39295239930033
C           9.13370046426906   21.09364111417558   -6.65991998297626
S          10.23937147208437   22.11121199035938   -7.49217462431444
C          10.33152370226419   23.13400304472968   -6.09493871807260
C           9.53198316138594   22.70067632555827   -5.02314287911878
C           9.53843312779457   23.46024737433012   -3.82395618958213
C           8.77395360528827   22.95229917802817   -2.62888001647074
C           9.43264999538903   21.69961288908637   -2.04597854241776
C          10.28114178359606   24.63328177353300   -3.73808718526123
C          10.21171336240231   25.52854691831784   -2.52791589577138
C          11.16622061318749   25.09255320205192   -1.41532786092448
C          11.10595361494598   25.03770918080343   -4.81485799629199
C          11.95758294912271   26.19752626162604   -4.96561550730984
C          12.49699706368992   26.26602893836233   -6.22163311590435
S          12.09397201328042   24.95682944078260   -7.24921032303263
C          11.10071518263710   24.27989124764460   -5.99295258477109
C          12.32462858719410   27.17577085649436   -3.97026643628525
C          12.47009032604757   28.48931116717668   -4.27135058323957
C          12.86889750425336   29.55175765464086   -3.41886791882652
C          13.30559679853377   29.59634868260145   -2.12761051096950
C          13.57820602893308   28.55787453129578   -1.14477668728000
O          13.45216918953766   27.35674481861852   -1.26784109091898
N          14.04063665706778   29.11598369162432    0.04259378067607
C          14.15060627711465   30.46984074932145    0.08278862259140
C          14.57083229232913   31.24688923458653    1.13254668990689
C          14.97526343623548   30.78460457291310    2.39658701314307
N          15.31320337600750   30.47140848389272    3.44861973870181
C          14.61709826023616   32.64864566773014    0.98305779955519
N          14.65880828884603   33.78918970338999    0.86815314541952
S          13.67101597340330   31.18077822917243   -1.43388411802350
C          14.37565319513870   28.25259004934844    1.14945271506799
H          -1.71113481957399    0.24532241971260    0.52683165864682
H          -1.76203557077487    2.65176240748286    0.83240308342829
H          -5.86116506521627    0.09983593254757    2.48343153744154
H          -5.82513461812975    6.24843219742967    3.19828541096200
H          -7.96630972940689    5.17728547859090    4.23154964051817
H          -3.43931719796025    6.14303519395213    2.15955140514361
H          -2.03961691787515    4.52038463275189   -0.02185829704013
H          -2.10333331581986    7.97504464161429    1.84468420176341
H           1.40482510227007    8.53242297111960   -2.36276713322432
H          -0.92686400560016   10.45164073734473    1.62938650318611
H           2.56224648567990   11.01139337713771   -2.58632674990866
H           3.59623275358294   12.82407928724709   -3.21291404121496
H           3.17840488421125   16.81801033042717   -0.29540363859662
H           1.96244327372122   14.74989665289395    0.24592362743367
H           6.89676972216349   14.42432530822199   -4.99981879799434
H           5.83733778405778   13.14230016062776   -4.40948932143501
H           7.48659462424772   15.02313151343517   -2.65084011404845
H           7.88264236123758   13.34130600402118   -3.01472883954620
H           6.44751952308772   13.72600519765926   -2.06123413547345
H           3.31971893773037   15.74297898653356   -5.12609182617286
H           3.81748121647611   14.08265090219484   -5.44579141075507
H           5.13534673512656   16.60156563252298   -6.56062223726923
H           4.12867298851944   15.45463300186247   -7.43740364926923
H           5.71285343663718   14.95468658634814   -6.85697145163991
H           7.03858904477422   16.92053993044720   -5.25634177674982
H           6.32057004797037   20.07512864852410   -2.45746523399497
H           4.70580376552808   18.67849272289097   -1.25096642281377
H           8.42230919978106   18.83514475762052   -5.30763640062902
H           7.16907632590771   21.29200756662211   -4.01152652436247
H           8.72302779171364   20.25183673944742   -7.18212599145199
H           7.74323424723301   22.73820870437535   -2.90926604528169
H           8.73383534375420   23.70594160409355   -1.84732396278991
H          10.46092426715493   21.91370617879167   -1.76314603035749
H           9.44069014083872   20.88672423624444   -2.76663201488791
H           8.89211878354683   21.36912552978472   -1.16147047988530
H           9.19130005427623   25.56333260242624   -2.14172589854423
H          10.45778466082150   26.54558893668509   -2.83810553861145
H          11.18360539891147   25.83791898869596   -0.62389319409340
H          12.17789220487144   24.97977780700405   -1.79569231471817
H          10.85883857325986   24.14235238468273   -0.98733542007535
H          13.19234367009995   27.00254406752173   -6.57533795184877
H          12.54480253507849   26.82684776809704   -2.97468727624377
H          12.21543050567728   28.80791424392605   -5.27514763438297
H          12.81161191158741   30.52843388869220   -3.88848182751733
H          14.19478312353885   27.23012316347975    0.81624973204819
H          13.75037373531399   28.47264150359521    2.01513109359200
H          15.42380057376527   28.36745664800717    1.42626642159913
