88
 SCF done       -171.180498012417          0.000552737103
C           2.57900630437495    8.64030938364897   -7.53845962322001
C           2.31585217941952    8.04161817830751   -6.35477132862545
C           2.96438721951098    6.87112173322175   -5.90970847540232
C           3.92446786363413    6.19056313409083   -6.79429499845984
C           4.32221352702640    6.64788585973268   -8.00300963384354
S           3.74040307876326    8.10028289636450   -8.70344740923239
C           4.30635361917565    5.00783529410246   -6.10382691165745
C           3.64207840262923    4.94883985034407   -4.88231371220768
C           3.98450284150899    3.79573161191592   -4.14373665665869
C           4.88031720622858    3.02347385755344   -4.81375121073996
S           5.34554757025737    3.65966732319689   -6.35449915888784
C           2.81326643492797    6.12317071317681   -4.73714916092576
C           2.04594046915814    6.36406418968986   -3.56702657170903
C           1.50841604773163    7.54088601442063   -3.16459705005107
C           0.75085099109002    7.69493411814769   -1.97468667288608
C           0.18247487152958    8.84928086189684   -1.44432962041663
C           0.30170865202344   10.20298429270866   -1.97731228719323
O           0.10364819935423   11.20711633074685   -1.33048676528227
O           0.65829415021143   10.28526670706745   -3.27534823270627
C          -0.47061513890586    8.61449150934119   -0.19044726280365
C          -0.38762024020345    7.31149570856268    0.19859883879529
S           0.46832199397677    6.33574486093163   -0.92235041012622
C          -1.17250088547735    9.61612818463519    0.60736560323705
C          -0.90095189132971    9.78907374925901    1.92985065841611
C          -1.54238027000049   10.72582790943701    2.75516058913939
C          -2.58066727025570   11.60692681603508    2.22003995604359
C          -3.01853236994704   11.57654380271370    0.94013739078142
S          -2.41075814781721   10.50528998511036   -0.24440504511857
C          -2.96985459973277   12.43141982466916    3.31029763266183
C          -2.23326586362466   12.09990815248619    4.44801199545163
C          -2.61245735274887   12.88565718806723    5.56021028724366
C          -3.59364840808302   13.77038035809746    5.24168666010636
S          -4.10416898432760   13.69241112908130    3.59094318353492
C          -1.32811497914608   11.02440528809589    4.10993109790541
C          -0.40320226669043   10.36092551054721    4.94782629376026
C          -0.07040033021950   10.71840708460937    6.21449486972481
C           0.84381958722733    9.99697377250362    7.01694897545719
C           1.33286626215103   10.30129694931426    8.28160039929332
C           1.11561597980489   11.51361888233209    9.05957314784550
O           1.75265022983899   11.79409976940222   10.05119306349873
O           0.14078081752395   12.32866126402736    8.61286871118882
C           2.26642611247142    9.32847624812471    8.76739023813724
C           2.46044021297948    8.31079415572780    7.87666608298403
S           1.52164563898114    8.48829101733330    6.45617858249266
C           2.86429296981794    9.36959499740199   10.07718358898302
C           4.13771314419930    9.05390482528857   10.40168769977331
C           4.49409616804500    8.75487634803108   11.81784356106063
O           3.81126945854217    8.94772697875963   12.79571313399519
C           5.81661548983096    8.10161710862997   11.75439476819550
C           6.53993796157992    7.53517808211327   12.76415596509590
C           7.77616458224265    6.92036244855068   12.46664735932078
C           8.23648781852138    6.89773169882793   11.11778882445250
C           9.46415374111771    6.27127281722851   10.82530539191136
C          10.18600354266595    5.70410706447348   11.83776826270723
C           9.75215640251144    5.71893014625759   13.17060153939424
C           8.56277505072702    6.32133211172170   13.47210865215704
F          11.35862503848437    5.10426656548013   11.56025256295817
C           7.46997672561166    7.49901772349706   10.09317669056006
C           6.28014848493692    8.10031178320218   10.40744465806708
C           5.31133883224296    8.81408795343618    9.57946480956026
C           5.56302157097421    9.32814667792791    8.33752722228887
C           4.71070128206644   10.20847102481657    7.63652010501370
N           4.10818133020208   10.96248651124817    7.01565308203110
C           6.75656077597651    9.09759067927430    7.62134838689795
N           7.69629278393814    8.92457076342156    6.98519243039929
H           2.06533351023722    9.53117685499974   -7.85800947847527
H           1.54628906049093    8.47961600071955   -5.73723643962259
H           5.04268958766879    6.12232218218295   -8.60955275587218
H           3.59563447949118    3.54431963087520   -3.17362641638973
H           5.31361037667179    2.09489304031121   -4.49695686218951
H           1.91989017442398    5.50290755127274   -2.91972521874343
H           1.66772577580116    8.43933716110039   -3.73460090996767
H           0.71370234315175   11.22280572706733   -3.51960809377781
H          -0.80505086152099    6.86614760489146    1.07967236529116
H          -0.11053641688734    9.18274276206759    2.35113193195911
H          -3.79038926321920   12.23690966987981    0.57698015611950
H          -2.20035581036162   12.81211983151473    6.54956056817161
H          -4.06664290246314   14.48514167981748    5.88658222712372
H           0.08356534149607    9.48964628912021    4.52474163718484
H          -0.48954793830321   11.60396457873896    6.65800022161966
H           0.10621993943458   13.11032662123810    9.18699078660286
H           3.06633246661816    7.43494643692025    8.00541229670947
H           2.20663627051328    9.60509220202825   10.90620126625613
H           6.17140894535080    7.55492608243004   13.77882961247289
H           9.83089213157604    6.24466894439304    9.81108457020314
H          10.36502932959582    5.25533798888516   13.92729509096982
H           8.20723707142900    6.34549960125411   14.49121268662612
H           7.83988577003114    7.46022577758034    9.08086600303855
