60
 SCF done       -105.095785473846          0.000650924285
C          -2.12843303142963   -0.00632467618772   -0.61763865244631
C          -1.30732021499160    1.05262616808348   -0.79378823525731
C          -0.03317172987608    0.95897164220346   -1.38899960961546
C           0.46629067106037   -0.33619315465621   -1.86431938287728
C          -0.20932985105451   -1.50361467923843   -1.77623201491098
S          -1.77383341889124   -1.63772720064938   -1.08408732985200
C           1.75208370120260   -0.06152548023908   -2.40436767476140
C           2.04172773864816    1.29754195619726   -2.28444338891889
C           3.32433933090180    1.59883860329000   -2.79598205937911
C           3.94969456111359    0.49333686776287   -3.28026912867296
S           3.02229403147504   -0.95805541705434   -3.13877605890579
C           0.91883448823377    1.95180612781699   -1.64653816998514
C           0.76439321354219    3.32317407217906   -1.32179399136820
C           1.60214173367748    4.33830502203877   -1.65069086556302
C           1.35308354797173    5.68382824849125   -1.27738625168473
C           2.14408347398328    6.72040270099787   -1.64755918966569
C           1.91884612206362    8.09448328208456   -1.32641659704338
C           1.17296794392373    8.68748074998998   -0.32413021556402
C           0.58885698648089    7.97016647107794    0.83078345058147
O          -0.49688096924046    8.19779998810725    1.29098369458407
O           1.38815119469298    7.04299779289320    1.40552291890467
C           1.08008729530584   10.11349624516168   -0.45741793654805
C           1.80568567130822   10.56053176487843   -1.53298444064368
S           2.56603062413758    9.30291263197113   -2.40723932503287
C           0.34871417927067   10.94720522112882    0.45984968565035
C           0.10196534651330   12.25921347994383    0.28337900466594
C          -0.62155345571438   13.09294060355818    1.19642625286561
C          -0.89742394720596   14.40291895316134    0.90592183557555
C          -1.58788407520114   15.29082762271844    1.74027445761862
C          -2.08174890178578   14.84991365417872    3.05287344778161
C          -1.92760300177882   13.60030437348322    3.54018138967111
S          -1.12509365924987   12.33698375916710    2.70578588771318
C          -2.71169303575392   15.99063988100008    3.61264848597446
C          -2.62911820832430   17.06618230758983    2.72347167149599
C          -3.22650723475403   18.22935167815780    3.26424177869509
C          -3.73453821141665   18.00954372874939    4.50414849456684
S          -3.51638503565535   16.39104870040174    5.07864746726534
C          -1.93075296593923   16.63202332561888    1.54122232339779
C          -1.62861625236286   17.39042964312410    0.36126996758249
C          -2.06383972336116   18.61616995706800    0.06831596654506
H          -3.09863796340679    0.08456914804324   -0.15960965683272
H          -1.65540852564884    2.01887525268615   -0.45679513300778
H           0.19396448933033   -2.43555368558928   -2.13957506451802
H           3.78391413380011    2.56972611701427   -2.80971254144453
H           4.92466974641106    0.43382978835935   -3.72358151684588
H          -0.12582327360843    3.57562697142834   -0.75895149621452
H           2.49060353623738    4.14698702845412   -2.23230986267435
H           0.46758809253547    5.87008168890806   -0.68360931834495
H           2.97740639968521    6.53223455983094   -2.31281035057183
H           2.22078704924207    6.92800025209050    0.92903296234870
H           1.94542342687570   11.57119979079949   -1.85888536476476
H          -0.04854453072796   10.44502495810219    1.33025384831844
H           0.45035270281935   12.76105263387406   -0.60977166688622
H          -0.54848974178525   14.76890833810845   -0.05115003292965
H          -2.30720133548525   13.30488840942455    4.50599890263139
H          -3.27797199463486   19.18903939084517    2.78362583226647
H          -4.23699762274461   18.71136473604467    5.14114398338072
H          -0.98743907827058   16.88782235584143   -0.35249877767927
H          -2.71789706520435   19.16768716030928    0.71806569200010
H          -1.78344337694717   19.10296848912740   -0.85043810067996
