78
 SCF done       -160.671270491729          0.000286484354
C           1.11637499248540   -0.72577467468734    1.61569637541372
C           0.93449695372506    0.34836034937846    0.81251203607333
C           0.52557546211150    0.25744135178273   -0.53277050369337
C           0.36222736368714   -1.06533727844140   -1.15378573464648
C           0.48768043702793   -2.24649983246494   -0.50595122356231
S           0.88273256162255   -2.37599552562846    1.15611416906813
C           0.05889670785485   -0.81208452233146   -2.52006351222526
C           0.03148282172492    0.56137971439232   -2.74222162803315
C          -0.26842212963783    0.87758158924157   -4.08481267616346
C          -0.45317388517363   -0.24347346988848   -4.83135419929681
S          -0.27699673831690   -1.71773531825713   -3.94307680108847
C           0.29994165093034    1.24851825197615   -1.49945831406817
C           0.30113750882498    2.66323531717492   -1.40839009411863
C           0.22569618241322    3.41513351350974   -0.28046192471065
C           0.24863605490936    4.83936821096425   -0.22950162727837
C           0.39407236066142    5.71615262381106   -1.29716068873544
C           0.41405181102357    7.10361996800724   -1.15366198706489
C           0.29350891710047    7.76522777022801    0.06311188448111
C           0.14291428829770    6.91201017591639    1.19390151428797
C           0.12471374601417    5.47686357083726    1.03840705676183
N          -0.01346074191458    4.94978925122244    2.23645850913930
O          -0.08041458710412    5.96827857279643    3.08927782081018
N           0.01134522733546    7.15601430950906    2.48401937673395
C           0.32539270254626    9.20029673145608    0.18013660868571
C           0.17215292538465    9.85515089068925    1.39445782352662
C           0.20999523769255   11.24354864530177    1.53523787673059
C           0.40937593972821   12.11603851360925    0.47787256198222
C           0.56741596130832   11.49699190537718   -0.79168927573487
C           0.52282902117013   10.05883552747939   -0.94171070075174
N           0.69680335109923    9.80640799289347   -2.22422494534924
O           0.83848981081787   10.98296998162464   -2.83117233064983
N           0.76408138396571   12.01062008014842   -1.98892283142375
C           0.46206923095070   13.53513620141731    0.63381137916687
C           0.69245495006829   14.48404040207939   -0.33812396703003
C           0.68895048862055   15.78501736192818    0.16607820890938
Cl          0.95239994474690   17.15873539013895   -0.82009190506175
C           0.45073360779153   15.87216516924862    1.53382503887592
S           0.22964345604737   14.27458953126949    2.18928701656794
C           0.39040165085261   17.03141124362298    2.34152842449067
C           0.11229257291925   17.11745572739703    3.70591609035599
Cl         -0.26089556397287   15.75840823261321    4.67871092842809
C           0.16704125509002   18.40594014554256    4.22262627828930
C           0.48137299255064   19.36028279717254    3.27071070771289
S           0.68562301683290   18.61676367781200    1.70646914527891
C           0.57346892418208   20.76233626212811    3.38390445370235
C           0.70719819455091   21.53577509612238    4.50016990715483
C           0.33051635101005   22.97254878997191    4.42643699053646
O           0.11682523322981   23.61985071709289    3.42901146474203
C           0.22218730476974   23.41330917004027    5.83610673046601
C           0.62842839503781   22.36882663723662    6.68666835974628
C           1.07529624372699   21.24296790259433    5.86713231919139
C           1.91337598905256   20.24523051622844    6.29343991206470
C           2.55513241492741   19.34168089075125    5.42228894912644
N           3.13132042941340   18.61511908051309    4.74616679867627
C           2.30148542274138   20.06617665462569    7.63674813878056
N           2.62852209524030   19.86596627550188    8.71856706563110
C           0.57922638178091   22.54189884158386    8.06158799797056
C           0.13344083956174   23.75482359292320    8.56488204419274
C          -0.24845078673749   24.77857909918229    7.70760724676242
C          -0.21301334553943   24.62641168227585    6.32761703006353
Br         -0.84032224496606   26.42631660382231    8.44418916369006
H           1.43216072140719   -0.62651761417606    2.64039544886690
H           1.14150332342879    1.32034941542833    1.23337354644656
H           0.34206600880885   -3.19305189052823   -1.00200541681698
H          -0.34540402464883    1.87203486349559   -4.48569462983599
H          -0.68888537208614   -0.30497763008124   -5.87586635457610
H           0.32740256063905    3.16920348551559   -2.36520105187177
H           0.10477759143206    2.94254717816894    0.68201300017117
H           0.50011953444461    5.31824778916348   -2.29428413624566
H           0.53254245252778    7.70400201972374   -2.04190729220317
H           0.01898916423072    9.25629801761450    2.27801492865020
H           0.08135534212231   11.66029821542693    2.52383191461425
H           0.85818817250963   14.23593467924013   -1.36982102857314
H          -0.06408766667063   18.63024002546247    5.24782238724683
H           0.44787240070393   21.31908351624453    2.46003456839548
H           0.86678954467937   21.75642754114278    8.74152734730182
H           0.08306017629066   23.90675916272919    9.63211429782035
H          -0.51127867361115   25.41891334466108    5.65900793746460
