92
 SCF done       -173.470520317548          0.000872876149
C          -8.77900961055791   10.21220689478386   -1.16283638469610
C          -7.69726313474219    9.49291407848784   -0.78609135169649
C          -7.77939870687666    8.20403882149918   -0.22458780277749
C          -9.08388919797449    7.56897179189224   -0.01708879623659
C         -10.27360862104457    8.13020248319798   -0.33051682288930
S         -10.42500776580539    9.69113516643363   -1.02610477017234
C          -8.79297824264292    6.30083352773382    0.55664110427570
C          -7.41429227026659    6.14441395457053    0.70146961274574
C          -7.09384017449243    4.88922048421543    1.26613642643514
C          -8.20616873786687    4.15207733055926    1.52587544902087
S          -9.68551910660828    4.93751015934594    1.10248185838945
C          -6.76394479514631    7.34108740654760    0.21113561362723
C          -5.38167164849082    7.63353658134189    0.15070393932309
C          -4.36323350394164    6.83813284794098    0.56700770530864
C          -2.99469648045171    7.17769252507844    0.46242681550327
C          -1.91878497335074    6.39248665550437    0.85283403871763
C          -0.69522221137652    7.00389072260000    0.59477952522729
C          -0.82821137744103    8.27226985501467    0.00497824478672
S          -2.46628618164484    8.70822882318537   -0.22970423655631
C           0.46273192025944    8.79654218254923   -0.23570064621119
C           1.41865246688438    7.85792622597543    0.19804952797459
C           0.72410045984313    6.70652565873503    0.74206630508495
C           1.27875356653453    5.58205483801612    1.28073783812074
C           0.49322982341926    4.52452903708231    1.78342647560491
N          -0.14304317020651    3.66648444111328    2.20128583442576
C           2.67480507470804    5.40296875751840    1.37134872545517
N           3.80923879845376    5.25495244757764    1.45112640646523
C           2.73035007991736    8.27807682898482   -0.02210516217303
C           2.78491904191615    9.52524866321002   -0.61305619323109
S           1.18087230396951   10.19689957197685   -0.89886654675483
C           3.93747437848586   10.24827222939140   -1.00732023847806
C           4.00539193454901   11.51109140089566   -1.55640787229562
C           5.30517115776795   11.93879544320906   -1.84925570338346
C           5.57930893665410   13.24850864327376   -2.45458894064653
C           6.36550282788026   14.18520498095697   -1.79722115577027
C           6.60149670900883   15.42554829819341   -2.38430397296979
C           6.03886103625062   15.73298513070318   -3.61758630918690
C           5.25735162040915   14.78843808983228   -4.27697228420942
C           5.01917701670869   13.54967006398046   -3.68634185586055
O           4.68334570426136   14.98595407327209   -5.48771268004377
C           4.96958275519383   16.17661172964741   -6.18911661385537
O           7.40468827316796   16.26874408406102   -1.67886092641449
C           7.66195548041810   17.55041001454626   -2.20136199682319
C           6.26341398114387   10.97670783174874   -1.55000012240674
S           5.52167123292437    9.55105881235011   -0.85913011363027
C           7.64872769730157   10.95138653907784   -1.83624380640392
C           8.47890469035471    9.83740362997720   -1.75214328402265
C           9.77268848290230   10.08090064554507   -2.16926163156865
C           9.98424681203078   11.38730709588318   -2.60314205055010
S           8.51839293294115   12.32470558955231   -2.42823783740519
C          11.22010544701582   11.91717015607605   -3.00118184275487
C          11.54973838588924   13.16238510827025   -3.46673850572438
C          12.94935495210385   13.62464524647527   -3.31074728856226
O          13.92141080827292   12.95204902693678   -3.05345007584856
C          12.88840921985053   15.09650267949564   -3.48013499581562
C          11.58019443228157   15.47116310092108   -3.83547817209464
C          10.77173254603587   14.26010811987698   -3.98349072079738
C           9.62504178259875   14.17423646196749   -4.73511106855792
C           9.08018859120982   12.95340099818999   -5.18425594333502
N           8.65813305635426   11.98911957430889   -5.64206558721792
C           8.94248413959901   15.28952813892356   -5.24557639477228
N           8.33807300758359   16.17765390610609   -5.65558547391958
C          11.27747194864999   16.81060466023569   -4.02010796515661
C          12.28013370405086   17.75354098598452   -3.84881328507709
C          13.56718105300150   17.36005973175063   -3.51006642080426
C          13.89571612349838   16.02428895463288   -3.31931347766611
Br         14.91137079743400   18.68712104766335   -3.30023955829538
H          -8.69652916699931   11.19673013080530   -1.59094702870707
H          -6.72319001250268    9.93974597249625   -0.92767063008742
H         -11.21316400401844    7.62839364640587   -0.16217051520995
H          -6.10535948850570    4.52573309006941    1.47744579611592
H          -8.25407693614832    3.16877847625197    1.95145370523544
H          -5.11925057327915    8.59367940104606   -0.27778290281308
H          -4.56457165031196    5.87375743787813    1.00616873142073
H          -2.04190297655490    5.42163050900595    1.29739339036237
H           3.61371859650711    7.71717345169958    0.22549670465072
H           3.13468757460753   12.11733122387614   -1.73482815812917
H           6.78819103590244   13.98013713406545   -0.82690159326972
H           6.21669110585803   16.69182970318481   -4.07129077791111
H           4.41617782189889   12.82904645643765   -4.21418901104936
H           4.48285880659182   16.06900824519349   -7.15688388937523
H           6.04598005738810   16.30471080167125   -6.33356826092905
H           4.55864917493509   17.05147505792077   -5.67458855336376
H           8.35816970489107   18.01707249908603   -1.50615503150600
H           6.74818427297903   18.15088918611261   -2.25603668022370
H           8.11920452874244   17.49754598258249   -3.19396365700809
H           8.12147986328650    8.88323688689891   -1.40728952613147
H          10.55007469474071    9.33790817829424   -2.18544010756076
H          12.07554527881816   11.27603291165119   -2.80564387768633
H          10.28482353955462   17.13440874853098   -4.28552186487249
H          12.06064457264231   18.80179405229328   -3.98230918533156
H          14.89564689776215   15.71490982953944   -3.05760363860862
