100
 SCF done       -192.590279443596          0.000480734602
C           1.49165693280363   -0.63616780231311    1.02635366127070
C           1.09520143009250    0.65847869247041    1.02370301169488
C           0.21161487121075    1.19544629689195    0.06973527648689
C          -0.32471133976224    0.35403724566626   -1.00101316777257
C          -0.03962668269699   -0.95879803070634   -1.16488444052022
S           1.00206617310857   -1.83361102180783   -0.12075567545639
C          -1.16653121972969    1.20918955323969   -1.76491001822948
C          -1.17434291106683    2.49161494273100   -1.21545162752633
C          -2.03320127126729    3.35356314642030   -1.93465281228959
C          -2.61661775919028    2.72544438307871   -2.99028242876049
S          -2.16861661331252    1.06774515298682   -3.15418546245468
C          -0.29307324247781    2.50063687359713   -0.06438101154413
C           0.04713240592092    3.58193326464007    0.77455318533111
C          -0.35885210080269    4.87071496169817    0.59074086285030
C          -0.04165717795701    5.98079391076944    1.39148238413593
S          -0.68230586248689    7.52071698939927    0.88193298096776
C           0.03872706361525    8.40099626084612    2.22049840904605
C           0.74354981469068    7.50532819925598    3.00384464669235
C           0.70807541432524    6.15046016994385    2.56310210096533
C           1.44848919763270    5.31096331042972    3.42357782777519
C           2.01928725485223    5.99229024589391    4.45869852957354
C           2.85056531193369    5.41184238886822    5.50768687160123
O           3.13303252213667    4.23959645040991    5.58395261650145
O           3.26521344630391    6.34532509967082    6.37728792268714
C           4.08849141248442    5.88740499133996    7.43749512090086
S           1.68146506307550    7.70959615969983    4.44595293840931
C          -0.13280633750031    9.80262580393505    2.31383918235360
C          -0.91551306731144   10.47137983563965    1.39339884506433
C          -1.08800868493253   11.84341464316076    1.32410903869892
C          -0.56119187314843   12.71419326779084    2.38003107553003
C           0.21024308810787   12.27354624380947    3.39903238112978
S           0.70939900919993   10.63960105141792    3.60426524502008
C          -1.05368209574370   14.01433710342874    2.07422299959785
C          -1.81703807588942   13.96936122611009    0.90735299310896
C          -2.31751236373351   15.23876191184715    0.54761687282702
C          -1.93393233598812   16.19439624861413    1.43485993620162
S          -0.95117001407236   15.60007423116717    2.72965316388377
C          -1.82753219106457   12.62083237330456    0.39767436187637
C          -2.44858226195733   12.21542624994646   -0.79451272784218
C          -2.19896688879583   11.04294481816179   -1.46005567259010
C          -2.89221229098952   10.56541318176884   -2.57365249183515
S          -4.22095852371596   11.38876300936165   -3.33797649401878
C          -4.47378894144362   10.10869303301854   -4.52436458363690
C          -3.56453296081190    9.08465954827010   -4.27110891081297
C          -2.66470336429636    9.33180008573042   -3.20916522757126
C          -1.76025565776144    8.26819092195019   -3.01542228917460
C          -1.96906952460822    7.25056130650321   -3.90357241513437
C          -1.22673828252463    6.00190024923700   -4.03920027531042
O          -1.49597039640421    5.12727098774812   -4.82670656644022
O          -0.20116734841453    5.94829685765700   -3.16659051948553
C           0.65831273595174    4.82048938942572   -3.24429934456411
S          -3.28723158677569    7.55530167602194   -5.02040567258500
C          -5.50327677268122   10.09933841098027   -5.46797203348515
C          -6.32555944398239   11.12398448866459   -5.86722578587715
C          -7.66132653834024   10.82040424009108   -6.42808215168984
O          -8.07619740487462    9.74066687376847   -6.79110811302977
C          -8.39747092731510   12.10312355594035   -6.38842667872718
C          -9.70205514415581   12.35706266209618   -6.69424640777076
C         -10.20055440881970   13.67283280831282   -6.55281859967287
C          -9.33115361099068   14.70281179709274   -6.09099364116817
C          -9.83658133722768   16.00919019174301   -5.94616573835368
C         -11.14423755698764   16.26142908147713   -6.25437381287037
C         -12.01428659417579   15.26375602482987   -6.71212548700081
C         -11.53999233669965   13.98921089399613   -6.85641801915645
F         -11.62862849324295   17.51157317134579   -6.11690040417534
C          -7.97908565851336   14.41190606615932   -5.79068335544991
C          -7.52005442185804   13.13297061768415   -5.94225081139587
C          -6.19199999439849   12.55164362369367   -5.75771101546007
C          -5.01162193120169   13.25848218760001   -5.76780056037774
C          -4.93448792362270   14.66020688869552   -5.69683186773632
N          -4.81607071887422   15.79985518443054   -5.60803933736811
C          -3.75762464432267   12.64478400573307   -5.95225547124633
N          -2.72963165242720   12.17610826227162   -6.16095525103741
H           2.16360582645652   -1.02974946268465    1.76994441374417
H           1.48017501634370    1.30032423309457    1.80339553894813
H          -0.45594226518973   -1.54480970500739   -1.96848604895693
H          -2.23577005797120    4.38396019797125   -1.70657123901516
H          -3.28764742711115    3.15022123846355   -3.71056917407436
H           0.69211477798595    3.35415240017226    1.60956499959313
H          -0.98043624419689    5.10233722647266   -0.26059961057048
H           1.57494919341833    4.25028688094790    3.31638899495869
H           4.32414126136115    6.76220497638017    8.03760151788981
H           5.00017772801820    5.43563445902573    7.04077563658384
H           3.55847211025990    5.14203962448210    8.03418661738365
H          -1.44501291086773    9.84501011456060    0.69156720039864
H           0.58965694059948   12.93054716932002    4.16543356629608
H          -2.92512190687100   15.43987329002755   -0.31568191600792
H          -2.16694544687496   17.24098122384150    1.41379913529302
H          -3.16719276192203   12.90070147201066   -1.22841497076854
H          -1.38363148873155   10.41213958153591   -1.14206208238609
H          -0.99066173756330    8.23726081780801   -2.26609182502038
H           0.85730484841511    4.48586431817257   -2.22710119886720
H           1.59039211639783    5.11800298173210   -3.72811993491666
H           0.18184904111144    4.02644541126899   -3.82197908821907
H          -5.74600473514880    9.12099559656662   -5.87342520790812
H         -10.34883604151633   11.56539346745736   -7.04181583528286
H          -9.19384345826391   16.80352251680440   -5.59987124611290
H         -13.03630340679342   15.52158598712633   -6.94056532875909
H         -12.19139664104446   13.20297227014098   -7.20766840732229
H          -7.34161671409955   15.20836358521250   -5.44008457023441
