115
 SCF done       -216.716161563926          0.000759596643
C           2.63273147179692    4.40834335935461   -9.64430231745150
C           2.73123919412122    4.70881315912583   -8.33064282078344
C           3.43083491511892    3.91371866535488   -7.39998721857639
C           4.09552444474231    2.67960473281670   -7.83603101837760
C           4.10526573734728    2.21468645182872   -9.10472350691886
S           3.32912925876774    3.01637787888334  -10.40916673908180
C           4.68196304477925    2.13999287195221   -6.65931505818367
C           4.40922648149494    2.96350610812358   -5.56691707713188
C           4.99967194025105    2.46390466567070   -4.38386259748066
C           5.67812329396935    1.30731520196566   -4.60565229888124
S           5.63570832144210    0.77000245608882   -6.24773806664115
C           3.61575237402620    4.08404940035491   -6.02480711366399
C           3.10300866625254    5.17052252609411   -5.26813305366304
C           3.15637429350861    5.30102465806326   -3.92198373596653
C           2.63217964032326    6.40913397342198   -3.19887290020919
C           2.08702725788023    7.57923969107451   -3.65412826239365
C           1.65534309605575    8.45170276961994   -2.63010467304940
C           1.08682297976690    9.73665086526022   -2.75993951382810
C           0.79584833199836   10.34212348366469   -4.04360821170528
C           0.90855202410120   11.65773761806560   -4.39031791344070
C           0.46459948101024   11.91912738731285   -5.70483318955613
C           0.00007248432522   10.82642543497100   -6.37442620608350
S           0.12071747164317    9.42423877927919   -5.36451119942533
C          -0.53982462144447   10.73584694072018   -7.75487672461288
Cl          0.51083176928016   13.49881085440576   -6.39052697098623
C           0.78063636657004   10.40298599251844   -1.57771658234570
C           0.99854034862278    9.85173293066808   -0.29212574835676
C           1.60404094585390    8.58531374108767   -0.16143522189898
C           1.89970833542615    7.91357166254982   -1.33996943091239
S           2.64857752187014    6.34759208940760   -1.44588878548906
C           1.90833117504935    8.04308556004132    1.14712208708763
C           2.43032890400745    8.70518856645069    2.22108816973729
C           2.59983507077181    7.86947580320749    3.34602279394295
C           2.20968098091628    6.57671726527577    3.15230468872284
S           1.62425247318098    6.36905527500226    1.53571414924666
C           2.23659243376222    5.44306775419526    4.11060715291301
Cl          3.24817376304659    8.45238256181063    4.83247578264760
C           0.49018724915833   10.68155620831350    0.73556105938448
C          -0.06923768727891   11.84055957395113    0.28209151765540
S           0.01172403241134   11.96493311268127   -1.46614502540747
C          -0.67070798226491   12.87685092290421    1.04694950650771
C          -1.13035017112465   14.09300890400500    0.59065994338064
C          -1.66688053788018   14.85879676579081    1.62798576733174
C          -1.62816135813123   14.21661575110666    2.88445076300315
S          -0.89910637863764   12.65774035656426    2.77720516362025
C          -2.20932364194660   15.08934111392865    3.80374048423448
C          -2.58001274628948   16.25110071636254    3.08657084836388
N          -2.24328561323378   16.09272215734674    1.76749826889636
C          -3.18114863981000   17.22578478200907    3.87754091389110
C          -3.29396034599775   16.82009973345380    5.19755370749116
S          -2.62941565930705   15.20851292366969    5.46777807863632
C          -3.88106624691519   17.55945868251722    6.24765652174199
C          -4.08181279300762   17.08672374986216    7.50579677500186
C          -4.68561903780366   17.81994136337631    8.54890008227780
C          -5.10849631916439   19.13974325338461    8.61066284466715
S          -5.05637110875813   20.46740191651992    7.49610165598313
C          -5.83990452928741   21.51098839728145    8.66958221719854
C          -6.11302787741926   22.92393382718738    8.30893251204515
C          -6.12101178593008   20.87357453089723    9.83275174637819
C          -5.71464955097488   19.51509622089077    9.82947453569124
C          -5.76249999777994   18.47298980790252   10.76498749707510
S          -5.03661893389504   17.03675535556773   10.06647919611595
C          -6.42322622517838   18.51261460718272   11.99546818657987
C          -6.48756087808136   17.57379798380993   12.99360209350111
C          -7.65774483075036   17.56177008652062   13.90123261934438
O          -8.48199953565085   18.43982636417493   14.04354647495330
C          -7.63813090771348   16.22700191939598   14.53668349215761
C          -8.56011337274021   15.65145284572810   15.36078680360829
C          -8.34885806701121   14.32924797252295   15.81490160224343
C          -7.18042826618220   13.62647576148284   15.40079728883473
C          -6.98479289474031   12.30493962684600   15.84607173752729
C          -7.91393314227267   11.72815910194443   16.66631893097607
C          -9.06654397062952   12.40336996000574   17.08818157679984
C          -9.27283574389121   13.68670593141641   16.66350459350203
F          -7.72862849004731   10.46343041633946   17.09212263399554
C          -6.23333508955403   14.25421467883135   14.55691746772264
C          -6.45838087986164   15.53542744885904   14.13657267415299
C          -5.66434858074394   16.43457742512635   13.30185775842149
C          -4.30832184323711   16.34005540668242   13.10113872862421
C          -3.53422570986040   15.23281471718362   13.49278151164513
N          -2.86307322386426   14.34668872167522   13.78219677984121
C          -3.54430567771196   17.40546595995279   12.58622404483915
N          -2.89516519478146   18.28190778070502   12.22596746890869
H           2.09362032959396    5.02758961116132  -10.34085020463867
H           2.24185891240017    5.60782590818127   -7.98290131978539
H           4.60507677429876    1.30072923016508   -9.38373757020191
H           4.94771285711858    2.91966245456778   -3.41254082381339
H           6.21628014528582    0.71673876181648   -3.89016578228073
H           2.61647826224684    5.94982554239340   -5.83881071545663
H           3.59722822747060    4.52171742400555   -3.32102629896072
H           2.01507523763044    7.81719794787189   -4.69817896063952
H           1.32387168888817   12.41550615415946   -3.75285210467870
H          -0.58465867092887   11.72887748650745   -8.19516004971051
H          -1.54015782214075   10.30448076546083   -7.74824857038033
H           0.09437607560522   10.10336335340124   -8.37600044841987
H           2.72488105315771    9.73821338392406    2.20630460929921
H           2.69113678986267    5.76405052132701    5.04456672131399
H           2.80887417892841    4.61055164767155    3.70348217772785
H           1.22642466322307    5.08820032841146    4.31380806781635
H           0.50838580171243   10.42151494929912    1.77820100037076
H          -1.06797256650073   14.38893566779534   -0.44072691239395
H          -2.39517800184227   16.76095925315023    1.03247128553773
H          -3.53346739540021   18.17975757236434    3.52997659327418
H          -4.20174350199763   18.56100519711010    5.99333329482038
H          -3.78338652167551   16.07432319621142    7.74326521503116
H          -5.18447783739771   23.44271764726216    8.07124746181629
H          -6.60090144713921   23.43425338596398    9.13546852996310
H          -6.75593345091939   22.97678409337912    7.43034644242625
H          -6.59544471540639   21.35380288156453   10.66902437113504
H          -7.08185544561610   19.36492567338557   12.13499733179600
H          -9.44305004086389   16.19502426822134   15.66227651386879
H          -6.10658008189093   11.75590993112332   15.54402845632777
H          -9.76453878834963   11.89769254818636   17.73648151455258
H         -10.15403707582119   14.22772297513384   16.97452746309988
H          -5.35830911914155   13.70090625949031   14.25373099454226
