94
 SCF done       -158.708767411729          0.000955568151
C           4.21775509586044    1.37145057344740   -1.11661664052889
C           3.47907451899897    2.36455209276116   -1.65567685310124
C           2.83198075719185    2.27324916034181   -2.90708801515024
C           3.03765537365642    1.07865071856713   -3.74577383970199
C           3.72470354157912   -0.02121539769933   -3.37123092101802
S           4.49441899696807   -0.18368876868748   -1.84283081467287
C           2.36851663333060    1.35966080748399   -4.96886199100565
C           1.79001758846373    2.62372482084608   -4.90242899283286
C           1.10016196822501    2.95750606122629   -6.08851432173643
C           1.17608104971647    1.95988415332826   -7.00792581409570
S           2.07398915129780    0.57854918283423   -6.47438855100045
C           2.05343442971828    3.19736577431067   -3.60329609917331
C           1.54509897218524    4.46941436984366   -3.21049782450845
C           1.32949300934506    4.89434405867301   -1.94365695813731
C           0.82391536247788    6.17468409861212   -1.58801823828468
N           0.52389572286579    6.46475094008443   -0.27019207882652
C           0.06664616210745    7.74318952271430   -0.19762173380125
C          -0.40245106645205    8.72272603603378    0.67196703518985
C          -0.65883061873980    9.85111378167513   -0.11557958416664
N          -0.35311732290935    9.56194222833179   -1.43296266239215
C           0.08976496588808    8.27973351587851   -1.50727917638278
C           0.56115128840065    7.29786036598240   -2.37656830883852
C          -1.13396439906239   11.13420385416256    0.25129741062858
C          -1.48419697884046   11.50708894577324    1.50775089563702
C          -1.93553463295469   12.79904636619414    1.89531872794965
C          -2.28380322485659   13.08136905781614    3.19531144987805
C          -2.72972277612524   14.31439497378178    3.67580462621359
C          -2.94597418551734   15.43313964621838    2.74263127826026
C          -2.66381654368981   15.39386539007933    1.42476045754176
S          -2.00933603739683   14.02267787483533    0.62470172394603
C          -3.49545130282249   16.48304784494517    3.52728301841976
C          -3.61350662314140   16.06214754160928    4.84868812779684
C          -4.14991846582455   17.06953731892026    5.68142899995037
C          -4.42223136159305   18.20306295718705    4.98420316456116
S          -4.03795489338769   18.10014830157710    3.29759566813165
C          -3.11958958591995   14.71180995218244    4.96676636765712
C          -3.09296895033835   14.03269071919260    6.21198941370102
C          -2.39304401719185   12.91846636907502    6.54430284979415
C          -2.44551857950715   12.28394219526073    7.81322396198963
N          -1.66223367282515   11.17506789913713    8.07537938506367
C          -1.91332686074826   10.75128947368565    9.34321381410978
C          -1.58651987921108    9.79038340369106   10.29458454375041
C          -2.36062342867038   10.08161000195152   11.42381943334227
N          -3.13775228294217   11.19635705533131   11.16335173870958
C          -2.88381962593141   11.61999336643625    9.89802760863784
C          -3.21669760417846   12.57689579263334    8.94274727973401
C          -2.43747914514705    9.42773260576667   12.67912135977694
C          -1.74416472725118    8.31192297143247   13.01487040292365
C          -1.79980970897256    7.62027201433119   14.26187659453809
C          -2.51058537357722    8.00796427600519   15.36807579563096
C          -2.56184324444531    7.31582114179098   16.58390815063115
C          -1.74315372904743    6.10589478760911   16.79544645476213
C          -0.97226251906460    5.53477105549092   15.84645846840578
S          -0.82973222365475    6.14377247483013   14.25037456758957
C          -1.95790210333913    5.73848014965782   18.14916676025518
C          -2.84196099190398    6.64116656800994   18.74068613066451
C          -3.10357099276645    6.32031759602956   20.09236430011818
C          -2.42627192661486    5.21055073055764   20.48370343787557
S          -1.44708982182616    4.50675750330802   19.23841734115149
C          -3.24010086973629    7.61934026193197   17.76633923084214
C          -4.17404187554309    8.67413401720485   18.05928556442731
C          -4.96811706119636    9.30800032899302   17.19767425010627
H           4.71363750138141    1.46840314109672   -0.16604650254950
H           3.41366997311531    3.29348145128119   -1.10784814106037
H           3.83347569103929   -0.88287169203679   -4.01068679316051
H           0.57571160833474    3.88051520108998   -6.25896486361547
H           0.74991873993608    1.93778392186107   -7.99173405358990
H           1.26088803289530    5.12212818288414   -4.02521257605851
H           1.50744819628418    4.21850531720986   -1.11788063239029
H           0.60896769233009    5.81133644427975    0.48904498400106
H          -0.54401396193414    8.65044197226339    1.73117750107754
H          -0.45394324854580   10.21100485724763   -2.19382687849473
H           0.70935910593028    7.37141681074726   -3.43473453166130
H          -1.21182739699379   11.85934176601023   -0.54972663493868
H          -1.42092745521060   10.78101633834114    2.30600422733818
H          -2.22872069741034   12.25247497882088    3.88598214901452
H          -2.82619522931626   16.23596960805034    0.77050402576905
H          -4.32669343918092   16.96925613431213    6.73730852534389
H          -4.83385109541629   19.12167315615179    5.35491590616695
H          -3.68472779100037   14.49908101459154    6.98879127726128
H          -1.71766495093500   12.47104225648517    5.82874189310626
H          -1.01354247205780   10.77057071836328    7.42322776012267
H          -0.88703187222507    8.98434400004340   10.20425117796153
H          -3.78575015598514   11.60251230793385   11.81575042622529
H          -3.92110537154992   13.37846058349565    9.03306808840990
H          -3.11358641215305    9.87520678886112   13.39595942083678
H          -1.08738701542313    7.87456122267483   12.27606931715521
H          -3.05089721237660    8.94000136959057   15.30347998219732
H          -0.39087033696088    4.64444336745584   16.02721068572974
H          -3.75620407590500    6.87490921459761   20.74285084166325
H          -2.43361798218640    4.74035120161936   21.44798050716548
H          -4.24021093767210    8.92990748701772   19.11104455801193
H          -5.00676523362161    9.05524190289695   16.15263152770759
H          -5.63795555052058   10.08498609339309   17.52471845416236
