94
 SCF done       -193.538222954121          0.000771155716
C          -9.24054739363501    7.33908867220895    2.66803435528545
C          -8.04633860449474    7.01208433623971    2.12111953030686
C          -7.62939759336973    5.68648252053669    1.89022773751089
C          -8.55443283587553    4.57597881441082    2.16105719189481
C          -9.77875760334460    4.70719959206196    2.72049828081116
S         -10.45100010346825    6.21553020143452    3.18198377808910
C          -7.88506956075817    3.40340588463221    1.71248856161376
C          -6.63749414044888    3.74821424237718    1.20043183240945
C          -5.92081003415984    2.62364741518548    0.73732357295023
C          -6.63233939940586    1.47769348301753    0.90457794549035
S          -8.18641667983043    1.71273393642497    1.62945204444843
C          -6.45034422687595    5.17469837181681    1.32875187877859
C          -5.24992434241529    5.81266725244596    0.92676512467811
C          -4.80846036207182    7.04452846836243    1.29248396504438
C          -3.60637980861259    7.63233397124431    0.82743265296433
C          -2.68324935402931    7.15072865287008   -0.09178579415975
C          -1.64362004919864    8.04785871316529   -0.31150501109064
C          -1.76205373998545    9.22880066217695    0.44156674043148
S          -3.15732476336009    9.22440305614498    1.42620928726412
C          -0.67985140111307   10.08248909631779    0.11523093438399
C           0.12457062290690    9.43930726005212   -0.84443525128320
C          -0.44583804475408    8.14283249611077   -1.14024538893641
C           0.02715622144609    7.20364893378811   -2.01048993757567
C          -0.62030090655779    5.96579489413924   -2.19928922147317
N          -1.14950293398146    4.95935350501497   -2.35135759379568
C           1.18793346473662    7.41320333767066   -2.78400442002611
N           2.12148716903189    7.58101098634345   -3.42840041084317
C           1.21989247483718   10.21453061463946   -1.23350162938777
C           1.23563853250666   11.43468229534685   -0.60100289231208
S          -0.10203763778555   11.63042188959887    0.51562695785706
C           2.20479632177195   12.49309775949029   -0.78570575671095
C           1.83125440600062   13.80701099171482   -1.11638649846794
C           0.45003099494365   14.22486806420151   -1.39142669725174
O          -0.53308647027654   13.54628424732027   -1.48192305161121
S           0.41685312020615   16.00125948320997   -1.65032653518547
C           2.19529202914967   16.15994485828163   -1.48435189467103
O           2.75268013971298   17.22003618146335   -1.50760359131293
C           2.77648627100171   14.82521762560395   -1.28044221924752
C           4.15621905431870   14.57977793712800   -1.20562223297619
C           4.53078685709538   13.26065593329504   -0.90201814692208
C           3.58597781992451   12.26011845614361   -0.66134715779657
C           4.16521852782503   10.98179114351795   -0.20987926350725
O           3.60400976787821   10.01310446727222    0.20981668657209
S           5.95519396249983   11.08727669501341   -0.31453983268878
C           5.92903481954671   12.79335281832979   -0.86667578532898
O           6.92082791467478   13.38570538433755   -1.17610248876276
C           5.13660290823990   15.62210391760826   -1.43737503759898
C           6.14857080867488   16.01983363602125   -0.59936619353439
C           6.89924068008326   17.06446602267893   -1.14954049721290
C           6.44891066882387   17.43693216598439   -2.42707463167079
S           5.10774567131011   16.52611098100247   -2.93795555127893
C           7.26781724515833   18.49249381575639   -2.90366108721053
C           8.23467637380663   18.78533915847571   -1.93093168098894
C           8.03387158544418   17.89289392651749   -0.79393144163282
C           8.76001380256692   17.85574230888169    0.36035915469087
C           8.45665950537443   16.96262988636905    1.40973714079146
N           8.20917850054033   16.25028880699762    2.27342161210806
C           9.85456245283557   18.71597316541479    0.58583037888578
N          10.74443298646184   19.41522981848192    0.77113254031251
C           9.07744568861292   19.83301105262381   -2.29952887942980
C           8.75589257704153   20.34795970234281   -3.54353463001351
S           7.39234520818538   19.50571528453310   -4.27145574486523
C           9.37655614059457   21.43277939064517   -4.22971777764649
C           8.91226164225630   21.91144123827908   -5.42909505551790
C           9.45949754781684   22.98660779696226   -6.13076514445188
C          10.57316831735375   23.76424854098568   -5.55936167413568
C          11.19874055743123   23.45377804904613   -4.40432471734620
S          10.77908399150302   22.11847167695780   -3.41349794752409
C          10.78599576715119   24.83680292619616   -6.46621883113868
C           9.87804877376786   24.73755223946112   -7.52473230239980
C          10.03864453204309   25.78355846074912   -8.46233273356262
C          11.03591219638127   26.62981475270008   -8.09881941138400
S          11.82370877767699   26.19717594967464   -6.61574217068917
C           9.06101128101538   23.57421712105211   -7.33846974301063
C           8.04710264267319   23.16685638821412   -8.27333059006268
C           7.58749866765986   21.93071918700166   -8.46594476197774
H          -9.53701503122623    8.36191433825439    2.82791407396658
H          -7.39961423650067    7.82313078174923    1.82220823762540
H         -10.41711542275735    3.86016387939954    2.91557915092363
H          -4.93807863281813    2.65077042353003    0.30289939244921
H          -6.33977623374292    0.47943279539374    0.64374570098583
H          -4.61437607354977    5.21250899121999    0.28914771467449
H          -5.36890744963714    7.63408702073420    2.00249904664440
H          -2.77746848495856    6.19748688352994   -0.57734904893627
H           1.95194337987069    9.91992487346933   -1.96330382280090
H           6.31490420312315   15.58748435496562    0.37043120949125
H           9.88221463553790   20.21660275109546   -1.69862264514636
H           8.03086495839537   21.43343324605160   -5.83413545270938
H          12.02422487972068   24.03092060244676   -4.01800971574535
H           9.45189849024877   25.90667542923756   -9.35453180774380
H          11.37548940919896   27.50614787440866   -8.61561377269651
H           7.66982778952258   23.96794197987325   -8.89825132532133
H           7.97243689812031   21.07802936797701   -7.93471388123022
H           6.82725692003360   21.72937143962797   -9.20080599871558
