134
 SCF done       -236.683352300263          0.000973432739
C          -9.29804124212116    1.72505893703113   -2.81987105034645
C          -7.93327934874825    1.52013928367932   -2.65915282138242
N          -7.25167093994132    0.41593428199861   -2.19087359677736
C          -7.93723114018081   -0.76385906383952   -1.72149942549455
C          -7.96858252956504   -1.87518296057002   -2.76938237761261
C          -5.89810924785267    0.66807423992742   -2.25667437620594
C          -5.71065546914276    1.98951908184823   -2.74539069923049
C          -7.01190662343552    2.53191864316928   -3.00206962535322
C          -7.45361151182846    3.75291753548063   -3.49443378156920
C          -8.81095079226807    3.95011190499018   -3.64430317390145
C          -9.71736028401977    2.94559276844080   -3.31263688322619
C          -4.44861861907095    2.53622877096661   -2.91362002844093
C          -3.34904818757306    1.75784860267464   -2.60667894320753
C          -3.51674983741443    0.45482620132145   -2.17259931693950
C          -4.77160105282250   -0.13920642071799   -1.99136860147497
C          -4.84864606629698   -1.52516182782900   -1.58826782645663
C          -3.90934567758749   -2.46141448432204   -1.83916736485642
C          -4.05867736494433   -3.83657961172637   -1.49691445073445
C          -5.14762184619749   -4.48386448216199   -0.94044974972074
C          -4.94123094579925   -5.85758367130655   -0.82094347247856
C          -3.68135578470471   -6.26812592914464   -1.28002779697580
S          -2.75413324485025   -4.95614219442588   -1.86254370111938
C          -3.59203066297646   -7.67820833287899   -1.14593654991848
C          -4.79458071498826   -8.15560457018710   -0.59846179412225
C          -5.68362423286143   -7.02992724933616   -0.37874788845453
C          -6.96158994256702   -7.05472699680145    0.10021285322911
C          -7.73514208998127   -5.88086691490576    0.20450274342418
N          -8.36686268586434   -4.92509232610838    0.26994468123969
C          -7.59599192761220   -8.24894993347205    0.50036481486790
N          -8.12070074140507   -9.21433277759620    0.82874560813306
C          -4.81946018430322   -9.54755794150573   -0.47379429111013
C          -3.65372044923942  -10.12826075910142   -0.92494796545650
S          -2.49254492102078   -8.93548598461927   -1.49747124579466
C          -3.35456830967606  -11.51353214558938   -1.03027595813019
C          -2.23511556323159  -12.08915005918375   -1.55844172409505
C          -2.29172241652939  -13.50201677128365   -1.61157808452890
C          -1.32021525457514  -14.38892601959674   -2.11886077908286
C          -0.01537644301124  -13.93912604268231   -2.55843723043738
C           0.72229389351158  -14.38837901863413   -3.61594469676994
C           1.98242472949119  -13.75898808614443   -3.71132762007766
C           2.23134839448575  -12.83911831744953   -2.73504689073808
S           0.87340686593022  -12.73023344536999   -1.66734611023781
C           3.44242352402995  -12.00636399810052   -2.52592332404362
Cl          3.10057169368114  -14.13197212014471   -4.96627241080413
C          -1.67929171800659  -15.73181132212216   -2.17179695028627
C          -2.91435317112779  -16.22682539960808   -1.68533819476474
C          -3.85093376926523  -15.35054215689502   -1.10031476617417
C          -3.52294265891140  -13.99913046166335   -1.11661857341448
S          -4.54029618139127  -12.70657778407578   -0.54105408901190
C          -5.07933466998220  -15.82340745823673   -0.49593203147326
C          -6.31238553294886  -15.23731732315370   -0.50552408274001
C          -7.26497610991674  -15.95347541505745    0.25179965129134
C          -6.77976191878007  -17.07557822135328    0.85733766775918
S          -5.10180071502847  -17.26999409373226    0.48069249502310
C          -7.48891046887020  -18.04801576102092    1.72651578393527
Cl         -8.90140420661283  -15.43677160262410    0.39086428045301
C          -3.05109440718816  -17.61636810384143   -1.91240021205895
C          -1.96689925481389  -18.18416560918696   -2.51639103272772
S          -0.69749131293183  -17.01701489142431   -2.82306297706391
C          -1.82637720072089  -19.52998112938134   -2.95238814602470
C          -0.73272565141677  -20.12219774967689   -3.54770310792933
C          -0.98908188028437  -21.44776637974125   -3.91057501520956
C          -2.28903796387366  -21.85809123671464   -3.58789591419779
S          -3.19301144135056  -20.62883148140060   -2.82467822710177
C          -2.46645733064406  -23.19698750878596   -4.03568227166082
C          -1.27909527006870  -23.62903298417707   -4.63553979305299
C          -0.30539340231392  -22.55169590616751   -4.57056286062212
C           0.97728712941228  -22.56715093768299   -5.03431998627288
C           1.83491014245471  -21.45348386922140   -4.91562373390516
N           2.53767168489135  -20.55196867098066   -4.82593164534278
C           1.53418626016919  -23.70026472469228   -5.66291551129330
N           1.99054114067539  -24.61963700811682   -6.17456994194552
C          -1.37348246551584  -24.93441347800980   -5.14570785798557
C          -2.62035772032556  -25.47385291961930   -4.96015985263257
S          -3.69479866046953  -24.38207858356303   -4.08947007187371
C          -3.07230744401981  -26.81817673133677   -5.28239958581093
C          -4.30561535423885  -27.11067960725950   -5.87882182177023
N          -5.25031798172663  -26.26510077446858   -6.42694187218777
C          -4.90110548096887  -25.02483616151238   -7.08921116539137
C          -4.86530947369452  -25.18768615544601   -8.60813096101872
C          -6.35208560815638  -27.03404139508849   -6.77807533875226
C          -6.08333898712398  -28.39396027830205   -6.50449267223637
C          -4.76697158171945  -28.44636184980740   -5.93549926851894
C          -3.97218391333673  -29.49665218295491   -5.50158941057689
C          -2.71393101916934  -29.21062170923734   -5.00696901988265
C          -2.28292301173362  -27.89768710693203   -4.88545357497550
C          -7.01409310212668  -29.38273804099425   -6.79245825351723
C          -8.21678415528886  -29.00393027752881   -7.35237787821937
C          -8.49735399912380  -27.66373666846745   -7.58661542874406
C          -7.59431517872133  -26.64540823292712   -7.29419861678138
C          -8.00012924697950  -25.24806336692293   -7.46395179558972
C          -8.71756233590455  -24.79274140981097   -8.48105385489576
H         -10.02503800607954    0.96318799148698   -2.58226430445493
H          -8.96027013734833   -0.47216876148831   -1.47484122392571
H          -7.48045133944774   -1.11092283839039   -0.79183823543968
H          -8.51085716228160   -1.54014877601843   -3.65054272983322
H          -8.46673405560181   -2.75143177162476   -2.36241957174681
H          -6.96112162246933   -2.15262849977894   -3.07179707161842
H          -6.74709318042047    4.52611927343299   -3.75553983918524
H          -9.18022188434837    4.88980025445069   -4.02687587069173
H         -10.77418430980580    3.12341802633961   -3.44743238442571
H          -4.33682022694436    3.54663296106621   -3.27518277439030
H          -2.35244877759710    2.15953009435177   -2.71097641056776
H          -2.63935945399783   -0.12644740550450   -1.93443437731458
H          -5.73352565489029   -1.84394417912446   -1.06649542368448
H          -3.00090748953870   -2.20662311753578   -2.36611421830221
H          -6.05164595202402   -3.98179432960309   -0.65181625610074
H          -5.64210257166095  -10.12264444236880   -0.08798157668659
H          -1.41035259197341  -11.50719337900780   -1.92730323212868
H           0.37837239345869  -15.11346214511566   -4.32942763430683
H           4.12487215220064  -12.13907199430956   -3.36168798770623
H           3.95254015288322  -12.29461384648303   -1.60669342610843
H           3.17607534388545  -10.95340283040194   -2.44550756289156
H          -6.55622016689298  -14.34865152465325   -1.05680140186435
H          -8.54407582612204  -17.79130213652585    1.77583285555046
H          -7.07541861637965  -18.03410205273492    2.73492232463177
H          -7.38549240971289  -19.05964200909753    1.33607613628720
H          -3.93205141220805  -18.18066385180522   -1.66662321894346
H           0.19281939520249  -19.59926759932114   -3.70900133638917
H          -0.58415901940675  -25.45311606154584   -5.65895751972158
H          -3.90514675914899  -24.73475299868816   -6.75433588810421
H          -5.59906370383737  -24.23293771882802   -6.80867684839076
H          -4.17386697369198  -25.98219940896260   -8.88137371154933
H          -4.52978608729970  -24.26096119092421   -9.06609485679780
H          -5.84893490931869  -25.43160148251751   -8.99942274261617
H          -4.33206854842887  -30.51252634230355   -5.55305105279710
H          -2.06716463748496  -30.00951661515243   -4.67791505398370
H          -1.32321087183256  -27.69180699579164   -4.43519979058181
H          -6.79844231542759  -30.41762577687750   -6.57607657094489
H          -8.96120801192112  -29.74876775742903   -7.59064838857691
H          -9.46660924198499  -27.39013564479015   -7.97614512445789
H          -7.70834041016605  -24.57450546297958   -6.66865063846400
H          -9.01724810367432  -25.43043471155563   -9.29634538353085
H          -9.02488520723453  -23.76275062529255   -8.54270926567252
