98
 SCF done       -184.571766855035          0.000519456646
C           1.11794327483074   -0.80095801055810   -2.25173698643140
C           0.49052769500147    0.32765009250660   -1.85009835997778
C          -0.74860390840795    0.33787248084622   -1.17784409169828
C          -1.47144541061699   -0.92681469957027   -0.96742562975728
C          -0.99704933321798   -2.15179735709891   -1.28621055422216
S           0.53354004403719   -2.41400583797607   -2.01493793755521
C          -2.71521223063396   -0.56097376914302   -0.38295792167651
C          -2.77077222564126    0.82183922742925   -0.23668090774512
C          -3.98375412212917    1.24894081951765    0.34559576728508
C          -4.80200830793883    0.19842413019179    0.61796734474783
S          -4.13896353455369   -1.34117482925791    0.18601477152898
C          -1.53285037781059    1.39795940826517   -0.70895589193873
C          -1.27872926429140    2.79311511366303   -0.64269745365970
C          -0.07034409162897    3.40895906964468   -0.69200106470836
C           0.11691624112849    4.81266146433599   -0.62415792654016
C          -0.82398001315265    5.83106663787315   -0.58043716752827
C          -0.23471697025112    7.09119764772135   -0.52055766796349
C           1.17130869418706    7.04477492234354   -0.51815756728114
S           1.76086638476068    5.44218234281292   -0.59212658614642
C           1.66533160628544    8.36707023382714   -0.45693517252871
C           0.57469463434557    9.25666411382571   -0.42618298206291
C          -0.65385263502214    8.48370932156516   -0.45854378408936
C          -1.93334230855854    8.95945058321129   -0.42375794821837
C          -3.05230123694559    8.10263223314312   -0.44354672120702
N          -3.96542353249601    7.40811127698384   -0.45603219389660
C          -2.22007211359596   10.33818650088551   -0.35859285761517
N          -2.45786343897352   11.45892990097131   -0.30208753402520
C           0.96462030907930   10.59356138966502   -0.36460743523100
C           2.34013779836693   10.73723751796874   -0.33942029285026
S           3.16635068188455    9.17712861937882   -0.40037307688374
C           3.09459709778615   11.94142626745969   -0.26531593117597
C           4.46394223197487   11.95177644390147   -0.14704865263817
C           5.25088191465799   13.09646508142639   -0.05674062610074
C           4.65092366189844   14.43234502496581   -0.09345673148643
C           3.32539994198695   14.66347970054181   -0.20749933283975
S           2.14425796950243   13.42335952767899   -0.32648250007465
C           5.74397196525213   15.33395754416940    0.02694074915891
C           6.94243206351156   14.62587018117229    0.14235658751442
C           8.04954036574971   15.49786059929517    0.25379120096292
C           7.67091711655913   16.80257360184185    0.22547425096209
S           5.96530138136595   17.03696769781867    0.06177268746128
C           6.64908236361785   13.21330282880957    0.09561559609240
C           7.52504188786816   12.11331191225136    0.19327883142045
C           8.86250961729246   12.15200318218788    0.44581523805408
C           9.67365135168394   10.99955797782206    0.55036148725975
C           9.32971887346844    9.66441098698150    0.37512866766024
C          10.40552114596601    8.80956101446142    0.58115960118963
C          11.59406016735419    9.48196998526129    0.91926256544015
S          11.37428303316843   11.17836526344913    0.97411368274521
C          12.61086533615171    8.52149154422480    1.11642077460394
C          12.07243309422373    7.23942156061081    0.90018604048328
C          10.67217595354352    7.37705777001880    0.55372484594507
C           9.78214863319193    6.38273626938665    0.26197454028560
C           8.43472522747877    6.65125115137973   -0.05208308498957
N           7.33605878491536    6.86462676546777   -0.30564382574692
C          10.14762415541495    5.02134398274966    0.25455037311044
N          10.43913133663508    3.91182620485402    0.24444870295879
C          13.00659768925566    6.21790280307492    1.08448998807337
C          14.25041800725970    6.70134413824970    1.43822863762755
S          14.26486098754999    8.46395347920374    1.54386187598131
C          15.43491017380275    5.95829091938183    1.71829358105154
C          16.62643075349922    6.55037676153819    2.04405504006460
C          17.81371402319081    5.86883890140033    2.32984080107317
C          17.87982921344747    4.40033501903124    2.20543449612669
C          16.82257314691456    3.61579834149977    1.91179646008037
S          15.23808961164258    4.20733539148890    1.62392161164416
C          19.23625376045222    4.06382691343427    2.45643226247702
C          19.96174623953921    5.22692553597029    2.72208159072893
C          21.32299946600532    4.95496204995096    2.98824291636737
C          21.58991683264786    3.62548848653174    2.91644197942433
S          20.21092804776664    2.64894141731948    2.52929056555310
C          19.07808401855776    6.35775715531353    2.66546352094039
C          19.51112114443143    7.70489810230338    2.92823407471254
C          18.76350004392537    8.71164873175472    3.37766114723312
H           2.06183985083152   -0.78060240875362   -2.76946775280398
H           0.96107942070180    1.26911894460086   -2.09067687579633
H          -1.55673185349448   -3.05418431138893   -1.09757444846232
H          -4.24529148484691    2.27069598553368    0.55319239780668
H          -5.78021903431631    0.22420771381073    1.05701256047093
H          -2.15821412656838    3.40443348987628   -0.48865518626393
H           0.83513934101818    2.82304553211054   -0.74616857567712
H          -1.88332659703632    5.65508788810359   -0.59708779209216
H           0.28983059176319   11.43012991307113   -0.33282336779044
H           4.94928435716646   10.98509026588237   -0.11607181176331
H           2.90651913775027   15.65710791130184   -0.22773733457452
H           9.07760276639764   15.19957173397923    0.34422407380373
H           8.30027129048763   17.66858262586812    0.29107780460037
H           7.06529611904907   11.14263417655016    0.07081513924956
H           9.35683116660828   13.09801448575144    0.60187739639451
H           8.34108700173232    9.34108726971828    0.10804024125875
H          12.79866168384724    5.16928757962264    0.96945551315640
H          16.64555180196950    7.63172818452974    2.05203683762897
H          16.89703470287202    2.54179561876544    1.84260324601794
H          22.06592187548463    5.69665550073498    3.22024972857764
H          22.53098923290392    3.13420924396620    3.06998780039397
H          20.57097329051388    7.87043666938383    2.77193914402233
H          17.72181060728043    8.59741605903687    3.62132142640945
H          19.18745671780365    9.68624516559264    3.54890937825740
