116
 SCF done       -205.576247708337          0.000608167810
C          -2.95938423937713    2.56548800085088    4.03246787557037
C          -2.14225284078067    2.18130939711332    2.97776125013714
N          -1.91585655134822    0.92700244209550    2.45309959483301
C          -2.47757320835248   -0.27010021715231    3.02652409337499
C          -3.86862613266407   -0.58114036058299    2.47363391996534
C          -1.04047490366240    1.04158577286513    1.39953744811327
C          -0.65944622324320    2.40273213097994    1.26631179832455
C          -1.38145721853103    3.13449693626887    2.26663561724947
C          -1.43671872661535    4.47731072700742    2.61541459595100
C          -2.25087789701812    4.85194872753905    3.66514724915323
C          -3.00001651981689    3.90655695512026    4.36227994624191
C           0.27085668161329    2.79965091950691    0.31895640227592
C           0.83652112199949    1.83465456499158   -0.49419576550298
C           0.46200905726922    0.50657155410987   -0.37777367127622
C          -0.49258394297544    0.06692296834292    0.54506989499000
C          -0.91602684733791   -1.31562012711743    0.54597482760523
C          -0.13804229044857   -2.37241623797889    0.23447026033420
C          -0.60307360304212   -3.71932265999013    0.24810050841899
C          -1.84270242754276   -4.20553076722178    0.62468305451446
C          -1.91560543722363   -5.59459303286316    0.53359656937778
C          -0.72421451819933   -6.18029013148526    0.07854914342264
S           0.48703771509786   -5.01324970857526   -0.22730952300816
C          -0.90867341530959   -7.58414373618286    0.02154676006679
C          -2.21851667934373   -7.88656423148029    0.43448064356546
C          -2.88822441479151   -6.64682577386143    0.78891396586837
C          -4.14386537092877   -6.48946771478602    1.30011678519282
C          -4.64028675638209   -5.22016703520091    1.66102273701483
N          -5.03032565277578   -4.18676625816160    1.97123937411235
C          -5.00926616902242   -7.57949718474965    1.52860574871279
N          -5.71611936705694   -8.46207882864875    1.71800664260334
C          -2.49465514500266   -9.25492128053864    0.41792467554500
C          -1.40408488260066   -9.99755148305093    0.00408783209063
S          -0.01686530008044   -8.98296975169779   -0.37694801910287
C          -1.30388714854953  -11.40823430045631   -0.11370972047459
C          -2.31399048281326  -12.34505100856427    0.01833008380393
C          -1.83965025229263  -13.64827371254430   -0.13737459456132
C          -0.45827011291968  -13.70411750654139   -0.38380442447714
S           0.25464542546022  -12.15337698485866   -0.43944900256255
C          -0.07177338350628  -15.06114504355326   -0.49777417469205
C          -1.20805867936281  -15.86974519223390   -0.33076849737961
C          -2.35930199397265  -15.00823459317417   -0.10668142684755
C          -3.65297429610025  -15.39206486153104    0.08784892559364
C          -4.69272552764752  -14.45869268844100    0.28473811304077
N          -5.54240662058780  -13.70475569434504    0.43983824366016
C          -4.04171076378173  -16.74845051255247    0.10076272219108
N          -4.36303307938904  -17.84885273502583    0.11495411261718
C          -0.92268027523053  -17.23426203090067   -0.40705774504865
C           0.42330932089122  -17.46944575002218   -0.62365264260051
S           1.34664298808195  -15.97784095350689   -0.74632032681993
C           1.08588413892235  -18.72069732531711   -0.72572470044226
C           0.52711846753260  -19.98597098826252   -0.69431884911942
C           1.49641743850310  -20.98580732779144   -0.79351651263066
C           2.79944132736859  -20.47842204759836   -0.90032208784759
S           2.83603802406652  -18.77305852192522   -0.88651643198411
C           3.70716713978690  -21.56813674626462   -0.97740634946414
C           2.97900036328597  -22.76230483758710   -0.91707913076931
C           1.56602941582295  -22.44196398110805   -0.81007122930262
C           0.52261153472404  -23.31842320060081   -0.75161119661451
C          -0.81819509696191  -22.88927077331442   -0.66100623343955
N          -1.91016371657256  -22.54716176889986   -0.58965107304604
C           0.71497015999697  -24.71541738090454   -0.78518297980288
N           0.86851309424312  -25.85147371638347   -0.81357319598312
C           3.79961147168881  -23.90000635438636   -0.96697854892128
C           5.13143627713342  -23.57771394156164   -1.04446797672868
S           5.38938389325741  -21.83523183399262   -1.10421074565058
C           6.25746171769654  -24.47789852044804   -1.22187979777956
C           7.50527678967409  -24.31398598681859   -0.60560039665847
N           7.89324067980792  -23.44406425110271    0.39451100987184
C           6.99674817167682  -23.02512487463023    1.45304034706734
C           7.24535068765862  -23.80189317200636    2.74506893318032
C           9.26597120733080  -23.57682458994014    0.56002663573232
C           9.74721664248660  -24.59092373863098   -0.29813829286108
C           8.61672046115962  -25.07359866694118   -1.03883061910207
C           8.47443193805126  -26.06931345220967   -1.99310014705089
C           7.21778989681533  -26.30188596460355   -2.51985986966476
C           6.13958637276979  -25.51000484872416   -2.15492434709704
C          11.08921231291092  -24.94501217968908   -0.31109850797777
C          11.94910374775325  -24.27494024475678    0.53472136521409
C          11.48469458147868  -23.25053623231180    1.34963587393498
C          10.14859654456340  -22.85965948388706    1.37695061202219
C           9.74811647961705  -21.69884695325111    2.17479007752137
C          10.23053955515770  -21.40699921630254    3.37438998447315
H          -3.55216844088546    1.85088825655990    4.58292492209772
H          -2.54125196740395   -0.12517594957892    4.10950254734421
H          -1.79004879562962   -1.10013695611920    2.84470105960551
H          -4.56995846759458    0.19859412993706    2.76021460184799
H          -4.22534501290879   -1.53233866214380    2.86006349314417
H          -3.85382525569387   -0.63071977151312    1.38681490409294
H          -0.85642602501480    5.20879666524018    2.07371126167927
H          -2.31287688703020    5.89069287221179    3.95306391656991
H          -3.62921540151327    4.22996951167504    5.17833163945804
H           0.54601971292346    3.83884151590925    0.22581020042717
H           1.56622063350728    2.11555961553967   -1.23859737142153
H           0.88660166838572   -0.21736398662238   -1.05667169654862
H          -1.95110344126033   -1.50113042150261    0.78455455524274
H           0.90552766599686   -2.23173845898200   -0.01005177575673
H          -2.64932370548715   -3.57850456342203    0.95485612712939
H          -3.43321698106719   -9.69482197221880    0.70026080135897
H          -3.33699641436550  -12.08221999708953    0.21365195919294
H          -1.64746907485473  -18.02011566724200   -0.30255252195381
H          -0.52888464792882  -20.16040296604530   -0.60344520092041
H           3.44669388600318  -24.91403428333479   -0.91663768793175
H           5.97673027688445  -23.22898465103531    1.12597705884785
H           7.08920639814732  -21.95108892250348    1.63114853712899
H           7.16722161645016  -24.87085578364215    2.55762059613832
H           6.50065943164387  -23.52286736764386    3.48590895432432
H           8.23137404657917  -23.58959137539878    3.14803418724477
H           9.32760617912589  -26.64705539742806   -2.31307654509548
H           7.07379473936884  -27.08182324595937   -3.25174321945835
H           5.18370742924698  -25.66133305929457   -2.63360029244640
H          11.44508774832165  -25.71930066928205   -0.97305449935239
H          12.99881876931792  -24.52706823921195    0.54962820693909
H          12.18883335407630  -22.70591222929862    1.96069290101561
H           9.03118893604581  -21.03517583113738    1.70945651167500
H          10.93507632573766  -22.04912513901336    3.87661304617522
H           9.93020696937672  -20.52025488495089    3.90589132201995
