126
 SCF done       -200.982448261992          0.000656790750
C           9.24856131889063    8.38951881847108    8.24966471185094
C           8.55681205040058    9.45569379549799    7.79425128247932
C           8.19671149507897   10.55527782408737    8.60092746940939
C           8.57828811270822   10.58731406853965   10.01915530469419
C           9.27315872752547    9.61981438836203   10.65434921001074
S           9.81651153266765    8.18410599013404    9.87978589715924
C           8.06109829273488   11.81688783707822   10.51147448029267
C           7.40819335679967   12.50542647599305    9.48999177786866
C           6.85385420297598   13.72107598098090    9.95388310092944
C           7.10514144160776   13.91821721339927   11.27464982823715
S           8.01444271224688   12.64699924548078   12.01731950655138
C           7.49610036256036   11.71891368833793    8.27743005602390
C           6.97615637564425   12.03550602176533    6.99488727169533
C           6.41052680478292   13.21429373975312    6.64488115419108
C           5.87736542146885   13.50068810372086    5.36285692569625
S           5.88093532517111   12.32234324722481    4.08429438164081
C           5.10153675805134   13.42234759233360    2.97528871545904
C           4.89800128497525   14.65509756322601    3.57642107915360
C           5.30681656335277   14.68691316042278    4.92547536236047
C           5.14421683985049   15.89535397031091    5.81263957048277
N           4.68402590300948   15.50860873696865    7.14371011510892
C           4.21394464740674   16.91403507811765    5.13928672016194
C           4.64005498902496   17.13556829879256    3.69847487743095
C           4.37792988167001   15.87432885633017    2.85858777839919
N           4.96540352072156   15.95580519328274    1.52983067304548
C           4.77356828242022   12.87643691430256    1.69892031530948
C           3.87680816801951   13.35309652378881    0.81116149284131
C           3.52205102393761   12.73729893266033   -0.44157335515950
C           2.41244110795728   13.20008631690373   -1.11435361500914
C           1.98507116511316   12.58823642832008   -2.31130240089574
C           0.89403816018447   12.81934985260634   -3.13749551749102
C          -0.19110089892242   13.84147159149068   -3.03500553788656
C          -1.33966053629757   13.35219254564974   -2.12786276168964
N          -0.88390187858389   13.18770981321553   -0.75895287790285
C           0.29200418487906   15.22393090992320   -2.56576931354663
N          -0.55928816563840   16.25276427498974   -3.14648712490639
C           0.93649206821604   11.81662017136113   -4.17714359714121
C           0.08616232232340   11.53933857506803   -5.18293159600284
C           0.34199674075657   10.43030395308489   -6.14539931095932
C           1.58297822035021    9.63688557211115   -5.86489233661970
C           2.41617487358926    9.91930876257183   -4.84694848722851
C           2.13289805860418   10.98840303230908   -3.96481601147546
C           2.75671148312428   11.46300647526350   -2.83191466329333
C           3.92255427572331   11.04048015331896   -2.14883581850346
C           4.28506980063613   11.65407664958965   -0.99707917090346
C           0.48022151965536   11.01175743822955   -7.52962265994611
C          -0.06309590409371   10.46766456318442   -8.62350773038183
C           0.04905295402035   10.98791743297040   -9.96346781141865
C           0.77150123617025   12.09879921255966  -10.29724827222658
C           0.81748735614151   12.68721019713065  -11.56466204148399
C           0.21395535442097   12.00991849368262  -12.72190249847329
C          -0.52840826079952   10.88452119686603  -12.63526751349051
S          -0.88475873268882   10.09186717474922  -11.15480473112510
C           0.57504089832861   12.79952889195567  -13.84800854621768
C           1.31846855860179   13.90190637944842  -13.42784399347093
C           1.68523813958338   14.73832624027242  -14.50466884152208
C           1.22451374532585   14.25922527055842  -15.68960115413009
S           0.32543963656228   12.78486076075509  -15.55065770349835
C           1.45510880029612   13.86389661311258  -11.99356751495655
C           2.09494471652426   14.87105132016046  -11.22463807731176
C           1.90807514934018   15.04286651587338   -9.89168195352393
C           2.56170852472163   15.95404424866573   -9.01272482091907
C           3.37566411337300   17.05305108488287   -9.37023585927454
C           3.94797981362288   17.90947035110534   -8.36720555342867
N           4.70867661381218   18.97080448513485   -8.74164735177109
C           4.90508327314033   19.19852144082101  -10.00787872648211
C           4.33235230693364   18.34856643563357  -11.00637724044296
N           3.60071055302644   17.32080868701658  -10.67549483593337
C           4.54802066378623   18.60259309519672  -12.46244292096311
C           5.74580933772335   20.37566284689463  -10.37795674146190
C           3.74952975133250   17.69366090140490   -7.00658723476063
C           2.97468689053401   16.60533043197238   -6.62989322463134
C           2.38211763003717   15.74421151787206   -7.62625319472776
N           1.69022897384599   14.74345103869993   -7.06982660294173
S           1.77243567486915   14.88074851001890   -5.47075086408201
N           2.67609409399804   16.20276440369018   -5.38441287534481
H           9.51318388757420    7.55641746182041    7.62119879766366
H           8.26411490307363    9.45940711256663    6.75350278969681
H           9.53694667395422    9.68235557471212   11.69818218464379
H           6.28611892746641   14.41674446200719    9.36345086011915
H           6.80655225090030   14.75014579859233   11.88258946537786
H           7.05193690458324   11.26091203687569    6.24072192173077
H           6.33113122866072   14.01927055695701    7.35477464031040
H           6.13214569544567   16.36123456311847    5.95384872985482
H           3.81684680573406   14.98559273718897    7.07155408536359
H           4.49908378928484   16.34143318569851    7.69399508939741
H           4.24105697494278   17.85410320466746    5.69695986149698
H           3.18745185875459   16.53501644292900    5.16180098658624
H           5.70836504776479   17.37166206108172    3.66905031129486
H           4.09579046430557   17.97688320457931    3.26177056599177
H           3.29048874916947   15.77127704490233    2.72332010849153
H           5.97667928791747   15.98932742156239    1.59389149404515
H           4.64989006706111   16.79430525128419    1.05553658188422
H           5.26904210130724   11.93435512369138    1.50017464344274
H           3.33662692856200   14.25572432878850    1.04396117916770
H           1.83783382983634   14.01176477184513   -0.69821238566991
H          -0.62300638647997   13.97040313671469   -4.03454692240197
H          -1.75614464522078   12.42588179388471   -2.56169857934940
H          -2.11903461341841   14.11818897620374   -2.13119956717319
H          -0.17247360637226   12.46495374072789   -0.71418890605287
H          -1.65486835271069   12.90672455231204   -0.16369537512470
H           1.35631174512320   15.35101929061905   -2.82291613823100
H           0.18344806770249   15.28308173911223   -1.48175731471280
H          -0.40249989024393   16.31148052408517   -4.14868160163286
H          -0.32954838676514   17.15821537777000   -2.75143952452703
H          -0.80770908875796   12.12319639952051   -5.35711265828771
H          -0.52212305055764    9.75019340822853   -6.14302421292697
H           1.78256667495712    8.82565943427191   -6.54857360832469
H           3.30299816030886    9.32399553789274   -4.68120563165510
H           4.50667903766123   10.22623929361479   -2.55355002640905
H           5.17720598651687   11.33488799704870   -0.48144894299222
H           1.09369134177939   11.89866743844809   -7.57749465238499
H          -0.67009766103108    9.57536852176403   -8.52769706178052
H           1.36178934027470   12.54084737927108   -9.51166559106524
H          -0.97604532909099   10.41434628827382  -13.49673401349350
H           2.25715714170893   15.64361271254771  -14.41196511429490
H           1.35327014133294   14.68293348486064  -16.66661339417310
H           2.74921750855724   15.55142077108969  -11.74983884119472
H           1.18261887446251   14.42970501819305   -9.37810730815327
H           4.16939568560670   19.58628593422246  -12.73687387821201
H           4.02898959350610   17.84534697009083  -13.04306922218450
H           5.61035909233045   18.57203630499791  -12.70077934809703
H           6.07642729303645   20.87752937095005   -9.47323604539787
H           5.17458634641039   21.07275579857140  -10.98939879532189
H           6.61446050093015   20.05669309617890  -10.95219147252685
H           4.19307234167172   18.35391784620526   -6.28120463471780
