98
 SCF done       -171.821707164345          0.000661529097
C          -0.65271411541651    0.06178538275311   -1.01982365039762
C          -1.03888812585916    1.28793712966881   -0.60260012556358
C          -2.34542202771261    1.59458152347752   -0.16826580133899
C          -3.34509167757904    0.51824298930418   -0.06346102076260
C          -3.14864418350456   -0.76212791863136   -0.44793538030580
S          -1.67196284824019   -1.33821177944157   -1.10643036058670
C          -4.49809279768182    1.12582744180524    0.50523641419483
C          -4.24618359150483    2.47474448933588    0.73465108264850
C          -5.35893329679664    3.13776119937290    1.29603800454632
C          -6.40497108746062    2.28912243512946    1.47747164425269
S          -6.08791752437823    0.66327395843117    0.97409872435906
C          -2.90604975693725    2.78860037910135    0.29497012723328
C          -2.38641073519404    4.10914176284415    0.36146008370389
C          -1.32261548207930    4.61425132094188   -0.30888705225839
C          -0.85041143633230    5.95486072106991   -0.20752469375161
C           0.20786876288800    6.40275046849544   -0.96240395177651
C           0.73312421177169    7.69508646678800   -0.93653037967432
C           0.15603785223614    8.72549879189464   -0.06703337002335
C          -0.88439602258794    8.51576213451862    0.76651204341141
S          -1.68775054062550    7.00849026364042    0.93074613453201
C           0.91989802346496    9.89668125952443   -0.31938671215995
C           1.90175515407255    9.63215245330047   -1.27606015150981
C           2.69775597084664   10.77315319153601   -1.52943740169247
C           2.30382286981753   11.84048643271525   -0.78696809181006
S           0.95970800341455   11.51716888695508    0.25302900561192
C           1.79450754016319    8.24909276241625   -1.67540238465858
C           2.58215871832037    7.53532198604365   -2.61038381850626
C           3.49840826590203    8.06084603022282   -3.46060566828806
C           4.27788166870860    7.29266293592599   -4.36877642582772
C           4.39551906367694    5.93414283256613   -4.49867612043273
C           5.28085898547967    5.52913330835335   -5.52297437105707
C           5.85510126783543    6.63601800583512   -6.20497190630879
S           5.28537949045302    8.14019435738785   -5.53740001200366
C           6.73876375298180    6.48773121679619   -7.24891743299288
C           7.08097925072134    5.19121629989121   -7.63666152499566
C           6.51908700359567    4.08633544918371   -6.94491947130834
C           5.63038275838970    4.23272201937699   -5.90600294154969
S           7.10371706744653    2.57618144636996   -7.58915645179228
C           8.08417944569234    3.42493072991179   -8.78090564401348
C           7.95582347361561    4.78071590028698   -8.67130681061596
C           8.87226453298339    2.67894815580217   -9.71141183753929
C           8.99751032833994    1.31721198997123   -9.64202551102905
C           9.74556434123873    0.52644428396422  -10.51822502724961
C          10.55641665350937    1.15684265457610  -11.57285421974072
C          10.57613836432226    2.48154728437677  -11.82973843260546
S           9.66058575549880    3.64282122034682  -10.95742089877855
C          11.26877524410478    0.09264292495408  -12.18960564683507
C          10.93512145976943   -1.11069397027743  -11.57188917240635
C          11.61392948258696   -2.20873161812950  -12.14499235079590
C          12.42974282192615   -1.81819643265768  -13.15876280609527
S          12.40704257267681   -0.11288616885735  -13.46278142834059
C           9.96413795927451   -0.85994381808638  -10.53573149116299
C           9.41311143319182   -1.89555771282228   -9.73566060874816
C           8.26957205921887   -1.83581061281638   -9.00883477795510
C           7.75459232010517   -2.85943693706030   -8.15834968031608
C           8.38147783886455   -4.03710670881245   -7.84042886233196
C           7.87532770813088   -5.01478239795824   -6.97817034026349
C           6.57533535890218   -4.83523390247415   -6.31272051184385
C           5.77857081113249   -3.75798214718646   -6.47613120929515
S           6.17635869592468   -2.43400376131775   -7.48877176888625
C           6.40395683683734   -5.99647101195899   -5.51745899283923
C           7.50519769932530   -6.84506834874828   -5.66555122818915
C           7.36173427741175   -8.01491477196730   -4.88215378599513
C           6.19736534461381   -8.01999887184886   -4.18384693613764
S           5.21732420561948   -6.61583143975168   -4.43729771917825
C           8.43423650059830   -6.23630650877073   -6.58155311175598
C           9.69804216737731   -6.74140132943200   -7.03261894030847
C          10.29153165446767   -7.87370370337164   -6.65212783482379
H           0.35402814948299   -0.14777322094637   -1.33923310502367
H          -0.28700083887338    2.06245807729894   -0.57544336920232
H          -3.91804138584498   -1.51363443331543   -0.36805395446164
H          -5.39152669681781    4.18081816514330    1.55448999342334
H          -7.37139146980735    2.51450312118966    1.88454719876559
H          -2.95091587413361    4.78385896968203    0.99442669231537
H          -0.78488659169985    3.99804786363695   -1.01447807279927
H           0.65660994068601    5.68167102125049   -1.63295304260474
H          -1.29095543183495    9.29006882959852    1.39777416794892
H           3.52689696694364   10.82158262463505   -2.21088485046774
H           2.72743523350339   12.82590221789929   -0.77941386936960
H           2.41104764928658    6.46783059933506   -2.64593190377699
H           3.65320124546800    9.12776435919731   -3.49509424397884
H           3.87517753702694    5.23117624692257   -3.87355158282460
H           7.15897776583296    7.34163231336521   -7.75629637144464
H           5.21273585249437    3.37722493978018   -5.39904391014939
H           8.47635577557362    5.47273773953907   -9.30990637607053
H           8.49541405371603    0.83896919953931   -8.81332156621956
H          11.17516020134776    2.91094634356495  -12.61734628576352
H          11.51008359033125   -3.23195431538649  -11.83162620731958
H          13.06219749441346   -2.43362665546128  -13.76840849540380
H           9.97084264597625   -2.82295124252018   -9.75920398287296
H           7.64696986131723   -0.95550327495992   -9.07749158190901
H           9.35009604717711   -4.20958461450854   -8.28719862164079
H           4.82888818386021   -3.65501501811591   -5.97479866527280
H           8.06823290932438   -8.82214303436549   -4.82504534225433
H           5.83669920078238   -8.77741931132559   -3.51521101001382
H          10.20478848075649   -6.11702817829338   -7.75830712553205
H           9.85597961469775   -8.54352924680987   -5.93421067837088
H          11.24665210934302   -8.16428309046654   -7.05475284288203
