100
 SCF done       -180.815003351444          0.000454870906
C           5.87121323560043    1.21225069948642    0.08510054515670
C           4.80107603334525    2.00692100438396    0.31034231492640
C           3.69807961710759    1.62322776477151    1.09897662663420
C           3.66775251516551    0.29957028945958    1.72912872926279
C           4.64337912059120   -0.62991647307366    1.62239706897735
S           6.08007081248184   -0.38937288137070    0.71440061772714
C           2.43550104336766    0.25412350098157    2.43639557336694
C           1.74201211223355    1.45307995650884    2.27144767420943
C           0.50683418673335    1.43220457254638    2.95856190094793
C           0.30798883469734    0.25505186025862    3.60857084406092
S           1.59741491355372   -0.87954673647820    3.41975303546167
C           2.53327866815549    2.32715044048808    1.43088482870860
C           2.25027003134805    3.65037659057605    1.01227713186041
C           1.17593584669281    4.39306547987198    1.38142814574575
C           0.91606146028939    5.74017191688960    0.99814100379693
C           1.68144493248039    6.49607740210280    0.14086225216558
C           1.45242427075168    7.83449539174101   -0.17323034553639
C           0.38993228891442    8.59889470219674    0.49704391577007
C          -0.51962590784163    8.05510860745189    1.33397531072067
S          -0.53094661314604    6.39548480656966    1.76395874934120
C           0.56652591463877    9.94465271676935    0.07455486862350
C           1.65547946533549   10.02416649767467   -0.79247278377043
C           1.87937156028976   11.34204700255201   -1.24833584710743
C           0.97646028713445   12.21086352313357   -0.72372100036142
S          -0.17972461409832   11.47235217052484    0.33427728046732
C           2.19942386364971    8.70588220245402   -0.98910633805554
C           3.27135111858362    8.42593227117875   -1.87074092365943
C           3.50993567886035    7.23730281175542   -2.48696287589600
C           4.60231625801059    6.99727900500237   -3.35541689365851
C           5.75629390784211    7.74459043400337   -3.53935976739681
C           6.60100577719497    7.18757855011974   -4.49531423381009
C           6.09002497297200    6.00804966842688   -5.06793281111780
S           4.57772811403393    5.57177719194191   -4.39242797160993
C           7.00850808699396    5.54223631840260   -6.03302251860384
C           8.11700012777612    6.40987136135405   -6.05787468764931
C           7.89647828361162    7.47103644273345   -5.09486562875404
C           8.72550556277334    8.52018135840630   -4.81156483618883
C           8.39295341239320    9.50328090603493   -3.85899923968742
N           8.12318852761381   10.30959750191352   -3.08828051878423
C           9.96806217685602    8.69045436311480   -5.45384867017087
N          10.98319767881452    8.83430183934581   -5.96892511092948
C           9.08238093974638    6.03541067404088   -6.99270446252753
C           8.71596119204126    4.90913708274410   -7.70323392278642
S           7.14682726399795    4.28453168278544   -7.18430295280261
C           9.43703137390711    4.25771908757708   -8.74494505433310
C           8.86095106122974    3.32844387286562   -9.57505368029313
C           9.50677480992738    2.67027154614371  -10.62217464625577
C          10.90744612873188    2.99010800964817  -10.94275054032406
C          11.67061194406872    3.86306300721724  -10.25206462138086
S          11.12401117320708    4.74562415839226   -8.88580876729915
C          11.21637512428760    2.22826115470980  -12.10236079294029
C          10.09603822314578    1.49772371704423  -12.49121413479587
C          10.34072051019614    0.72393868964795  -13.64740043242375
C          11.61246445047236    0.88652269356856  -14.09685650397664
S          12.56247243071092    1.97603522659533  -13.14235650129001
C           9.01849764430630    1.74831843805237  -11.56650007126700
C           7.74365216921919    1.14765013407233  -11.71710077981723
C           6.75461986727704    1.05839056960267  -10.79114333202227
C           5.45597494406029    0.51020764699380  -11.00758274055846
C           4.95162600788046    0.09175176031377  -12.21330439439335
C           3.66808096136230   -0.42137074394880  -12.41839569111094
C           2.75386668196551   -0.64543621016722  -11.28244414422869
C           3.02736321164999   -0.29113618287770  -10.00907441237575
S           4.49223469977835    0.45763622037059   -9.52840231997846
C           1.60786749036497   -1.26927425309689  -11.84039712669240
C           1.78377043093468   -1.41831695127167  -13.21784972678420
C           0.66592931955958   -2.02657559113631  -13.83363580097855
C          -0.30445933050000   -2.31955758965332  -12.93055476598696
S           0.08786355125503   -1.87015609571595  -11.30240010629818
C           3.05683099204385   -0.87245842071062  -13.59256873070243
C           3.52399148290810   -0.83336090735782  -14.95297786540719
C           4.37905122891906    0.04221382394653  -15.47980361075673
H           6.70450800281724    1.52380262008824   -0.52144064721489
H           4.80303058846628    2.98761600929996   -0.14467733571749
H           4.58300823219743   -1.59172301618973    2.10632495793800
H          -0.21574500511909    2.22683039567949    2.98390735168844
H          -0.53798910212913   -0.02872285928071    4.20371161568459
H           2.98801157019058    4.09174545302795    0.35648611348849
H           0.44700370184113    3.96211962126759    2.05014884092315
H           2.55284183939387    6.02394038319269   -0.28708593599307
H          -1.30712501812220    8.63119774290408    1.79347158148755
H           2.66253984733703   11.63675592895883   -1.92308256032865
H           0.90676612214612   13.26792086589542   -0.89139159623976
H           3.90566890631987    9.26851687951953   -2.11387636735624
H           2.80025899412035    6.42838374839630   -2.38404813090644
H           5.96774133950249    8.63999037447003   -2.98478151239001
H          10.00342057530982    6.56136948715510   -7.16926143981306
H           7.80990787323576    3.13877673814827   -9.41176960458154
H          12.69477588869729    4.07319059087713  -10.51734981397940
H           9.62358068157061    0.08074926682620  -14.12490681580393
H          12.07226523379332    0.42618992372062  -14.94955081941463
H           7.58344096426673    0.69494518171677  -12.68725521456699
H           6.93716988144136    1.39695752927656   -9.78186354157629
H           5.60743897823343    0.14822307901642  -13.06858661390347
H           2.33233563365820   -0.44840568993756   -9.19909291055238
H           0.57996768964079   -2.23677797510730  -14.88460037506033
H          -1.25506184861909   -2.78204265452080  -13.11252826441038
H           3.08087839551235   -1.58278642875475  -15.59903336160529
H           4.79621276153560    0.85680616630061  -14.91378429582802
H           4.66056573105490   -0.00910864366042  -16.51774608631618
