118
 SCF done       -211.927978433667          0.000524826590
C          -5.59546201657397   -0.96864015815819   -4.76123543221646
C          -4.59761973941278   -0.08373281885867   -4.54278047828674
C          -3.29412806361105   -0.23849903367097   -5.05559810667766
C          -2.95730696207680   -1.40585348201374   -5.87769404817135
C          -3.81879867028952   -2.39401654287772   -6.20550835565761
S          -5.45818000490990   -2.42391243620303   -5.69528748246612
C          -1.58704993671542   -1.23742893517177   -6.21630510895964
C          -1.09546256813980   -0.05808433789478   -5.65699647683508
C           0.27119433591317    0.12741127929657   -5.96746810560454
C           0.76069020389327   -0.88396960805868   -6.73152287011372
S          -0.40213477440773   -2.10455608659590   -7.11137269585191
C          -2.16835539102594    0.58212095128284   -4.92353381277488
C          -2.13627206754265    1.80066148570221   -4.20091693701591
C          -1.08030768596900    2.64712432818069   -4.12002083542399
C          -1.04610644958741    3.87391918911329   -3.40121676106366
C           0.07119102197311    4.67642064031410   -3.42338181002945
C           0.20889747566109    5.89553554792158   -2.76324927237382
C          -0.87895605491412    6.43961910520964   -1.94553314490938
C          -2.07045910438056    5.82794767790330   -1.77487803117391
S          -2.48520492917041    4.32303874439255   -2.49041922784678
C          -0.38106288397517    7.67059331356502   -1.43733749797649
C           0.91750716169017    7.89210367555952   -1.90117138604584
C           1.44526093007688    9.10736524621536   -1.40887947711761
C           0.55888995695382    9.75666359865745   -0.60991184650157
S          -0.94990234259879    8.93173330050242   -0.41664789025770
C           1.30211364589713    6.78362387036199   -2.73974762673079
C           2.50791874858037    6.55759271480473   -3.43894268441893
C           3.59852015210326    7.36209330506491   -3.51592226179151
C           4.75688493488833    7.01065852608901   -4.26115367629415
C           5.00367560286244    5.87599021320395   -4.98824924695756
C           6.27399000923997    5.84278947797067   -5.59908448198745
C           6.83077605047838    4.80585987508487   -6.37599557884749
C           6.12315370098757    3.55795220128865   -6.58284358536643
C           5.39875162344205    2.83955782748469   -5.67418618850599
C           4.82157373915116    1.68038170328966   -6.23443617044174
C           5.09404079710359    1.49534419714439   -7.55811671968746
S           6.09280357080412    2.78006272346859   -8.14263282333223
C           4.63832660005467    0.40023519426294   -8.45298572799537
Cl          3.85327658652880    0.58714807822714   -5.31619625843691
C           8.08289437418903    5.04898634259354   -6.92174946894475
C           8.81945614899499    6.23933008584535   -6.70471353814428
C           8.28299430612075    7.25585059632048   -5.88571676143671
C           7.01293521345312    7.03006412570167   -5.36516109618528
S           6.12140304085198    8.11423978308299   -4.33112830425694
C           9.01060864118435    8.47049423295434   -5.57873179606635
C           8.51652442444138    9.73694434762045   -5.45486622367792
C           9.50469447781263   10.67611691060238   -5.08822883659648
C          10.75112636044009   10.15049985838875   -4.91628442984451
S          10.71855009984484    8.44677004273668   -5.22300236931984
C          12.00983450598625   10.83753159161905   -4.53103668126745
Cl          9.14772170518525   12.34847729535747   -4.88044626320407
C          10.04991430922517    6.22917734636909   -7.40570488377294
C          10.28268521995599    5.07466772202753   -8.09711311467190
S           8.96196652098813    3.93071447906607   -7.92084450826165
C          11.39111019457260    4.72463554684416   -8.92705097958409
C          11.51085363004654    3.47087332862132   -9.46442168759168
C          12.52651954095878    3.04560818582297  -10.32071703349663
C          13.64659263180023    3.94580505464830  -10.63775464815219
C          13.73926741120154    5.22304645303234  -10.21009097423281
S          12.56088087718807    6.00278405720962   -9.23134911585474
C          14.53554426862054    3.17241386003224  -11.43305598257591
C          14.01520765632248    1.89024308677862  -11.60275615542295
C          14.85658221423754    1.07505768651246  -12.39170905016243
C          15.97058441788300    1.74343050765644  -12.78922892215788
S          16.04495620851592    3.38154464332371  -12.23104763719826
C          12.74507825817230    1.79823698368082  -10.92679395776890
C          11.95917929019618    0.61522199427274  -10.91750278772989
C          10.64458029222976    0.51579631402061  -10.59661562803981
C           9.88299915338431   -0.68779775630850  -10.50434542389078
C          10.34475725266835   -1.95607375773415  -10.74426443547791
C           9.59480294478031   -3.12956925219422  -10.61401215998209
C           8.16122933990284   -3.07178941215459  -10.27005360202559
C           7.49402151892864   -1.93440985285726   -9.98287856976773
S           8.22225049282482   -0.38218353786055   -9.98458825549896
C           7.70780398825041   -4.41502939289560  -10.32089295723610
C           8.77040191826356   -5.25130325058967  -10.66732397115231
C           8.38066127721440   -6.60906136725412  -10.72401924659589
C           7.06442037035140   -6.76476523701520  -10.42971586417807
S           6.24222054946813   -5.28175658679635  -10.06830893215978
C           9.95757344771290   -4.46085731037906  -10.83416142376066
C          11.23689915511285   -5.03198690663788  -11.16295803004101
C          12.43721772529183   -4.53353661186167  -10.87042233158405
H          -6.58559314309799   -0.83474367557822   -4.36003557533729
H          -4.82030322823383    0.78586649482185   -3.94030855372467
H          -3.53110125651163   -3.23606934321413   -6.81472720352716
H           0.88835624767138    0.94754709453343   -5.65123733149846
H           1.76063882839270   -0.99633050281552   -7.10215454066869
H          -3.04716082215032    2.06937149146051   -3.68075422336268
H          -0.16906195864531    2.40760838397793   -4.64532757174351
H           0.90353435289580    4.31373051375284   -4.01157787628108
H          -2.85958791936642    6.24661405423275   -1.17050489786047
H           2.42476770103649    9.49483431123641   -1.62011499881316
H           0.69406072046029   10.69328404954696   -0.10500814556252
H           2.54556857752237    5.62266011380430   -3.98060202442909
H           3.62239844014470    8.31203438509003   -3.00623759165493
H           4.28579970513060    5.08766966273756   -5.10921962669481
H           5.31460638740886    3.09574174655965   -4.63416418638434
H           4.67872569688294   -0.55303614409944   -7.92703823925481
H           5.26963285744091    0.35487949819533   -9.33674244446281
H           3.60825791984051    0.56892270475152   -8.77203221841372
H           7.49556706602320   10.00815724264288   -5.64786672918866
H          11.82941430311770   11.90561615995616   -4.43840778650364
H          12.78309668376817   10.67082806134525   -5.28010392659401
H          12.37861310326250   10.45794137816267   -3.57827312461195
H          10.74281836032441    7.05049078162664   -7.41124900926723
H          10.75573582753309    2.75968285487188   -9.16462848952174
H          14.57246231784026    5.85945055066328  -10.46376798622700
H          14.65612257438071    0.05203124280088  -12.65487063147189
H          16.77830241201053    1.37571362875528  -13.39158113405731
H          12.49206793274168   -0.27638957469630  -11.22227737874760
H          10.08040579568569    1.41334936883497  -10.39068222262113
H          11.36428736369208   -2.05089809469766  -11.08543676450954
H           6.44658593854021   -1.92920128935247   -9.72490320928759
H           9.03325518369369   -7.42823196798747  -10.96742435893564
H           6.50034707926185   -7.67660575127333  -10.39688540257349
H          11.18018225823408   -5.98976861245864  -11.66800729499476
H          12.56626133170668   -3.62624109572462  -10.30656875004059
H          13.33887278132257   -5.04605650658100  -11.15962039125444
