102
 SCF done       -177.065082925968          0.000657014965
C           8.41806761797069   12.56765653446641   -1.72478636385034
C           7.09745584342169   12.51115049846614   -1.44274878676873
C           6.39433912362828   13.54769924621637   -0.79616556678833
C           7.09383550377072   14.76976371919582   -0.38632730853654
C           8.40965337740618   15.00940013801524   -0.58107933766899
S           9.46737606730317   13.89644503005559   -1.34990725031003
C           6.09830047565017   15.57857646856527    0.22711448064966
C           4.86767851399664   14.92257083892294    0.20830416568422
C           3.85549591808335   15.70610874527808    0.80759784622175
C           4.33419635552695   16.89785876478211    1.25277655162399
S           6.02322971016903   17.12795458653342    0.96823390809190
C           5.04381286539781   13.63830747808068   -0.43540411361017
C           4.08361126141815   12.62762991375102   -0.68177954949655
C           2.77637692233714   12.64464295969967   -0.31603778319796
C           1.83248601223461   11.60757772925431   -0.56914638372778
C           2.08106867014841   10.47337615885354   -1.30631063324238
C           1.17895891566568    9.43736147739280   -1.53663365836498
C          -0.21217888743810    9.54344366368330   -1.07123987213789
C          -0.69128199985822   10.56766132460302   -0.33251378235217
S           0.26225795054664   11.89970177635495    0.17521474026888
C          -0.87084053880188    8.38724741136198   -1.57074730898796
C           0.03419625023035    7.60653410651710   -2.28567907344757
C          -0.56488352547529    6.43726169163210   -2.80483208223772
C          -1.88157388795598    6.36423462771913   -2.47782651438484
S          -2.44726552968518    7.69874816880017   -1.52977795156172
C           1.33288762718824    8.23379839050349   -2.25570074138858
C           2.46584300264398    7.63320722753348   -2.84985721115846
C           3.77427742452088    7.96860080042478   -2.67958697124034
C           4.88869713542017    7.33835748021489   -3.29696690031274
C           4.83180711912174    6.24321061215360   -4.12882881941489
C           5.92152384178061    5.60774152276386   -4.71734463149588
C           7.29089190139559    6.07437062524973   -4.44380199791012
C           7.59806684974988    7.13998314280138   -3.67469903695600
S           6.42212370268403    8.11089480618254   -2.88813026515275
C           8.14803036342053    5.17350583152637   -5.13236556171286
C           7.38384727589871    4.21396008519203   -5.78936078024818
C           8.18442523801264    3.27846443422030   -6.48260212818801
C           9.50759561276559    3.54921647705697   -6.33605230826219
S           9.83811652688887    4.94133804889194   -5.35963541101594
C           5.98295922193576    4.47510889105373   -5.55719781387667
C           4.98775407258587    3.65472741492002   -6.13270806115973
C           3.63346886330053    3.79303438562530   -6.10963643867159
C           2.70827755919579    2.89143850036602   -6.70476158097777
C           3.04078598109375    1.82972669526721   -7.51308803836618
C           2.14702689478596    0.91438008367068   -8.06358612053142
C           0.69518019010759    1.10522599923946   -7.91817102126091
C           0.12786559023630    2.08426731217164   -7.18214797449332
S           1.02808393549214    3.24517397833609   -6.29444784680279
C           0.09928694396844    0.08548028448349   -8.70885738335580
C           1.09466649956869   -0.69226222905304   -9.29780648768794
C           0.55789143728480   -1.73134024687509  -10.09003370509583
C          -0.80045970210312   -1.71390544381337  -10.08484898669847
S          -1.48420311354446   -0.44754743804353   -9.12091118877136
C           2.38577290227256   -0.20416719578740   -8.88533638222069
C           3.60701841896870   -0.80557711621934   -9.28041431624286
C           4.81178828520663   -0.64355353957988   -8.67428195029640
C           6.06220546256079   -1.18319730036637   -9.09324941580749
C           6.27931701982228   -1.99216472077460  -10.17916474355543
C           7.52175509194201   -2.49953950332414  -10.57267267580070
C           8.74380697594578   -2.17859370470729   -9.81754703215700
C           8.77979074013047   -1.39622384912125   -8.71919575324990
S           7.38635900433950   -0.66041276887919   -8.04410329697433
C           9.78765093430735   -2.85595772186194  -10.49840248850846
C           9.27159328008688   -3.54815703716003  -11.59717698633338
C          10.28989678696309   -4.24459738450310  -12.29017226672760
C          11.50859911183395   -4.06461809858811  -11.71893404451788
S          11.48729083723654   -3.04783390975217  -10.31879755082619
C           7.84929814266582   -3.32769123622993  -11.65315124869105
C           6.90849960246647   -3.83741024296211  -12.60703947412167
C           7.18122781584296   -4.55976943530066  -13.69476686949270
H           8.93710581373862   11.76459861357245   -2.21955751179749
H           6.56538598151630   11.61588002059660   -1.73331976886384
H           8.88615645915605   15.92315451928556   -0.26349733942428
H           2.82314007306038   15.42846867339558    0.91402278069676
H           3.78879916431092   17.67987296612548    1.74412203220717
H           4.46392163123980   11.76431243276729   -1.20986983512019
H           2.39384482287535   13.48988057785214    0.23484088290662
H           3.05367891731855   10.40823065299319   -1.76560894720725
H          -1.71639435566309   10.61430009881671   -0.00032731642602
H          -0.06144264319794    5.68837524715091   -3.38981257240845
H          -2.58090022371453    5.59304542454950   -2.73593062560412
H           2.22957065771541    6.78709318887982   -3.48193234349895
H           4.03346614365503    8.76509360389291   -1.99903074835576
H           3.84938007830847    5.83787149435408   -4.30352494809044
H           8.61420324687488    7.45620657393791   -3.49940249586765
H           7.81512116140025    2.44562071402285   -7.05421607263593
H          10.33849362946789    3.00994504483307   -6.74725950886607
H           5.39637057002507    2.80624129895558   -6.66624392495148
H           3.18038178149062    4.62703777086679   -5.59739215664717
H           4.08368922137302    1.73152481790163   -7.76707500131944
H          -0.94057510406557    2.20050655572924   -7.09137274395552
H           1.13695828311197   -2.45423028009602  -10.63609699006994
H          -1.46904518138289   -2.37912752311320  -10.59575965485917
H           3.53125074589844   -1.47201189454732  -10.12992151329220
H           4.86212934426042   -0.06845937593066   -7.76135174833328
H           5.41310574802261   -2.25806047704685  -10.76789891965319
H           9.69206405669484   -1.17737211601089   -8.18668626687285
H          10.14968876770507   -4.85490502592871  -13.16299986579297
H          12.44856440415479   -4.47345383345005  -12.03528336868528
H           5.87356618522187   -3.59257920350224  -12.40123786252423
H           8.18217998206349   -4.83369791403245  -13.97211387926538
H           6.39679924216451   -4.89774861100540  -14.34980822830842
