84
 SCF done       -145.518424352299          0.000767886171
C          -1.91522125564474    1.09977421001051    0.30453572892731
C          -1.06014233049568    1.95896576214627    0.90380104185565
C          -1.19237197145208    2.39209639839062    2.23882453211469
C          -2.25662268812934    1.82719848596281    3.08354554355355
C          -3.21111726112547    0.97026459048440    2.65805750266098
S          -3.31071041637967    0.38803277138669    1.04653949337756
C          -2.04671348448223    2.37699525769157    4.37860384674183
C          -0.94395025773977    3.22422900795327    4.34992418454376
C          -0.68546055823821    3.80624844987874    5.60972943641380
C          -1.58089516478748    3.39027805969809    6.54402733827843
S          -2.76848359668137    2.28661793769070    5.93800395227565
C          -0.40948536804274    3.26270705332295    3.00697111179327
C           0.69220741341348    4.08665058460741    2.66687164182341
C           1.06671216788602    4.48793653673212    1.42167921364753
C           2.15244530889749    5.33936704827237    1.11828009767543
C           3.29712533287023    5.70589478456830    1.85339662535276
C           4.05943166338574    6.72821699562885    1.21022009692169
C           5.22330079414292    7.22420689146950    1.82625578237863
C           5.62982865535125    6.69993015350358    3.02112486339556
C           4.91644178685576    5.65020365880903    3.62544784572367
C           3.77582864028022    5.15365866724841    3.05737226181823
C           3.53257112466728    7.11517350681414   -0.03559188413794
S           2.11135197103729    6.18538291626565   -0.39779854603109
C           3.99812563998381    8.12769174980945   -0.89114609442180
C           3.48238984896272    8.40807789961577   -2.11777283038752
C           3.90054892146071    9.48748637198938   -2.92822743014157
C           3.48098174774512    9.80130361135472   -4.20866962004297
C           4.07893449300770   11.00552847015266   -4.70494554255567
C           3.82397217638690   11.67957939133214   -5.89733016482777
C           4.58111735637395   12.79711741363298   -6.21825090545856
C           5.56081193553613   13.28721328690670   -5.33933163324723
C           5.76449031657550   12.67657956340524   -4.12160003978135
C           5.02387311107693   11.54550279903272   -3.81069405098518
S           5.10664132535165   10.62600724853097   -2.34172694682198
C           4.36748955185043   13.43596285056935   -7.46021643253419
N           4.20364317938555   13.94290482658936   -8.47544915412883
C           2.65052598425935    8.96508422613751   -5.04602470572507
C           2.94360085239792    8.60805939422188   -6.33973123966791
C           1.91946409869853    7.79631997810753   -6.93043803258429
C           1.89236458777929    7.20693724777715   -8.19167371264891
C           0.79663873223179    6.43451513881763   -8.55048659484229
C          -0.27348352356300    6.23215452441320   -7.66197199605093
C          -0.24593545539753    6.79059254811652   -6.40440775701517
C           0.84890224204470    7.56455592325318   -6.04361679915320
S           1.11029595654495    8.32887522264866   -4.50641157785581
C           0.75353636627770    5.83653808879718   -9.83077925461171
N           0.71454337530404    5.34850812026747  -10.86732440006030
C           4.17906052414847    8.97073776028710   -7.00152722166912
C           4.34260698887224    9.62386986465169   -8.21675036373760
C           5.71564756991807    9.92395724899230   -8.49906187660710
C           6.03480514536348   10.62984538998752   -9.68112892062735
C           5.03657528369865   11.03206081457528  -10.51566023609879
C           3.68201664929513   10.75955365627368  -10.22171329553299
C           3.33187479211084   10.07100676770285   -9.10145382973819
C           6.58186192801822    9.48805823672742   -7.49697812195641
S           5.69946645677401    8.71972952802795   -6.22227341849182
C           8.00402439852927    9.63202228107471   -7.43979787704101
C           8.77375042907400    9.24199541121067   -6.42367746125574
H          -1.78825970526600    0.77927432992500   -0.71557563407339
H          -0.21602028452874    2.30348963766783    0.32531563168402
H          -3.98390854427378    0.59650543112534    3.31090559539227
H           0.11352072521184    4.49354920414179    5.82281331688427
H          -1.62545660398473    3.66575529220566    7.57971544865625
H           1.22335648311635    4.49248790324307    3.51627412375419
H           0.43802278070226    4.23884642488255    0.57802736784950
H           5.79372874701765    8.00395853032294    1.34564501977807
H           6.52240267636057    7.07376334106395    3.50012877609639
H           5.28685262575973    5.22571644692052    4.54667599090746
H           3.26541436930471    4.31884123231576    3.50936996012989
H           4.81828650935739    8.73043241485897   -0.52277991623251
H           2.68576346409474    7.78751460330367   -2.50488389453223
H           3.04665765441972   11.34427003690801   -6.56562919333910
H           6.13717306187713   14.15513928053005   -5.62073591754035
H           6.48898008882702   13.06164123410602   -3.42131638902120
H           2.71295638390132    7.34724947342081   -8.87904370310753
H          -1.11127656481899    5.62777433937501   -7.97482445212978
H          -1.05376058587393    6.63216418237819   -5.70725087716674
H           7.06585475914909   10.85477076173564   -9.90683073677865
H           5.27197447275636   11.58122669601538  -11.41426493382137
H           2.92012285282406   11.11419912315363  -10.89876007224320
H           2.29559018862245    9.87258241370183   -8.86910188692581
H           8.45185867254066   10.10461147085689   -8.30370063816295
H           8.35552857448702    8.77282446651722   -5.54821538813900
H           9.83968370663689    9.38137914574090   -6.43751977103668
