91
 SCF done       -169.217873109533          0.000801132629
C           4.53830538537813   -2.34736228172456   -3.08237836571392
S           4.92915491353886   -0.86852130609625   -3.83920284187687
C           4.54891586112743    0.02788607442209   -2.38330899272883
C           4.11143749022797   -0.82596031637380   -1.38352436646295
C           4.11897755838052   -2.18112652061180   -1.79125414263459
C           3.68483030864123   -3.30196917369270   -0.91057816957974
S           2.10345973698549   -4.02495043072539   -1.54908225002676
C           3.55008403185611   -2.86224223226059    0.54290693546937
C           2.82902928235594   -1.52332515398278    0.64095860657812
C           3.65285734648298   -0.41888078909913   -0.01980031758426
C           4.71956958989270    1.43714214365576   -2.43366493051240
C           4.73721184203450    2.28942162239690   -1.37807012113300
C           4.87027175317887    3.70287905083702   -1.47076890524568
C           4.88600249078549    4.47365287664587   -0.27727749760248
C           4.95548263500393    5.90334894862970   -0.29573145944980
N           5.01980833101873    6.58485389369083    0.86078235962865
C           4.99973205060594    5.93278433901288    1.98931669683581
C           4.89125799288626    4.52875875910728    2.00663170127543
N           4.83883762934837    3.82935268766957    0.90667318580714
C           4.95102346162132    6.65294461526306   -1.49799288142717
C           5.05196388339992    5.88875003559845   -2.67735062701549
C           5.00447782242935    4.44192513828593   -2.66684172617047
N           5.13864558419873    3.94578626388779   -3.90007250852017
S           5.33579081224039    5.14536053251280   -4.94389907178245
N           5.25330516766441    6.36500509639986   -3.90628688016720
C           4.89449464460524    8.07287707808052   -1.44006237766933
S           5.28249347180081    8.87354054778349    0.04911897933071
C           5.05891455771678   10.45384349938906   -0.65710760652475
C           4.63990442950566   10.33765347175987   -1.98211167250495
C           4.53606098895266    9.00646524809391   -2.41552406538017
S           3.77268254457721    8.50107037040539   -3.91956324217887
C           2.88803833501888    9.91502664420262   -4.53683904247602
O           1.91210867852660    9.72232591393851   -5.20715962078891
C           3.49324331425694   11.28954295158588   -4.41857902810684
O           3.32679349989651   12.10602576360514   -5.28501139959138
S           4.45984839874416   11.74789390808100   -3.01994905920143
C           5.25887040992598   11.56390573319734    0.19464324236811
C           5.00142820749957   12.86938763232502   -0.08017874713335
C           5.18822260468924   13.94700427022869    0.82688035154049
C           4.73823881208346   15.24245720904404    0.45691377205805
C           4.85379304072608   16.38120124047482    1.32122607878085
N           4.29020681708854   17.55702124795809    0.95848153078638
C           3.69793524819076   17.63367870204224   -0.19903514100044
C           3.66391863464058   16.53786552274808   -1.08706622762864
N           4.15950243962957   15.38097248518850   -0.75538129704160
C           5.48210847469403   16.29064520177032    2.58438807717313
C           5.91902099607281   15.00562211426822    2.95996555809312
C           5.77887515877129   13.84897580860645    2.10522732983500
N           6.27641065870245   12.75380655190239    2.68593668322876
S           6.85794917840443   13.13730737053906    4.13239735234484
N           6.51948138434050   14.70131890421266    4.11411269340159
C           5.59909570815026   17.38936761455764    3.49899990398974
S           5.40358297415727   17.07476533361940    5.20317904133291
C           5.60396904605901   18.75674833975843    5.60087322875024
C           5.81927882161937   19.50524123779651    4.46700017394131
C           5.82754588907171   18.73465157412690    3.28216400757917
C           6.27118878478963   19.38436536268278    2.02400156875060
S           8.12617384909550   19.56265149681795    2.13092282588466
C           5.67415658803649   20.78254435699791    1.81995279984678
C           5.09479998468984   21.38418039013651    3.10163388291891
C           5.91217208795276   20.98862850912500    4.33398099059332
C           5.53874792836594   19.14132149881689    6.98798103071140
C           6.13285301956977   20.20014174107089    7.53222563450812
H           4.62490748129783   -3.26925212890864   -3.62320737909524
H           4.37366587288132   -4.14680036088118   -0.99416304589285
H           1.43360011756895   -2.87666461527445   -1.61846241890973
H           4.55151703104164   -2.76729939209952    0.97112629706105
H           3.01215722453830   -3.62821845542276    1.10353698913990
H           2.65722298330073   -1.27055496776405    1.68810611352884
H           1.85320396585440   -1.59738032009234    0.15505697059403
H           4.52909047004279   -0.20385373987824    0.60089088116035
H           3.06040525486531    0.49609303535051   -0.08577155870827
H           4.87357885469352    1.84938811346650   -3.42177640758117
H           4.66043903287197    1.92856239230377   -0.36560065958054
H           5.06857681213023    6.51747590012874    2.89538238779813
H           4.85127770139571    3.97621505590304    2.93544098567726
H           5.63308173127614   11.31215288813091    1.17839131618982
H           4.58903377051166   13.16825775808661   -1.03140378948471
H           3.23983106384197   18.58150184312879   -0.44798766266797
H           3.22034357046842   16.61498327002423   -2.07024243271870
H           6.09599063158110   18.75881926142773    1.15196787309512
H           8.38501723284756   18.26808838479770    2.30261326055367
H           4.88771311583548   20.71620482111104    1.06702946117272
H           6.45629514928876   21.43502922760997    1.42556117747770
H           4.07306859097986   21.02390720956913    3.24167919225108
H           5.05893606944319   22.47029259425289    3.00846232435031
H           5.51480966004746   21.48031832531044    5.22196331613604
H           6.95413102713847   21.29264819384838    4.19988664851096
H           4.97847566936193   18.46069839040396    7.61693770267515
H           6.75139066768247   20.87129885201511    6.96373385793590
H           6.03121667543798   20.41290174316308    8.58232695889637
