88
 SCF done       -175.515054914956          0.000534234445
C           4.97676230791136   -2.57516969787100    0.01939091097260
N           4.13353435831022   -3.55843214683142    0.04919424587030
C           2.89355878225708   -2.97721532369450    0.10861438341137
C           3.01094890976500   -1.51453579972211    0.11854871832818
C           1.68169426897246   -0.88429876179638    0.18131970840233
O           1.40263178594528    0.29060344971073    0.21026497069343
C           0.77742538324183   -2.05826900353255    0.20100566190381
C           1.57177369949267   -3.31390406537625    0.15724199085780
N           0.74901326790933   -4.39701756025313    0.17366813721690
C          -0.45938563015572   -3.90853472922544    0.22051560053633
C          -0.51579612117891   -2.45103247202831    0.23909970258656
C           4.35612139484490   -1.23823543976489    0.05808559603222
C           4.99959402149989    0.02717989826447    0.03733048864041
C           6.34382144944517    0.19122216264428   -0.03755273991120
C           7.01775331003539    1.43849085003210   -0.05851264993325
C           6.50873687500523    2.72995261242441    0.00010754012263
C           7.51498045687273    3.68923462034193   -0.03991878303860
C           8.80777007034906    3.12877138293448   -0.13309574141309
S           8.77177361851072    1.42569925597280   -0.16856977174560
C           9.76183997602848    4.17154199306410   -0.16879359206502
C           9.06675411201128    5.40023505607386   -0.08570301196959
C           7.63922050919615    5.14010772462265   -0.00705656976525
C           6.64612006414770    6.07176295396965    0.06858704521331
C           5.28109756534979    5.71793591202299    0.13291868217503
N           4.17678158938010    5.42123343637460    0.20552676902446
C           6.94070008011473    7.45115865963574    0.11720685111378
N           7.21441405025969    8.56290802185879    0.18367221174199
C           9.91246814565988    6.49737561070321   -0.12936347668162
C          11.24424850628150    6.12418593526789   -0.26507516586264
S          11.45050877987562    4.37822354368079   -0.27935622419910
C          12.38170745707108    6.95503413786026   -0.36475240952177
N          13.59617098092290    6.50805630324080   -0.06986896379348
C          14.41666048806781    7.56645205590021   -0.18562867174678
C          13.67678625063869    8.77438773592994   -0.58892745531374
C          14.58970178700234    9.92502099158129   -0.72401770988750
O          14.31362689485358   11.06858482498299   -1.01407013231834
C          15.89708084847905    9.33117987993286   -0.40485743411018
C          15.74753827744520    7.89609085941113   -0.07470786724759
N          16.95017792034242    7.34169446973579    0.19974006070997
C          17.81861286185162    8.31545791285455    0.05605756717905
C          17.23055718847293    9.58094233452977   -0.32831962492834
C          12.37421694373324    8.38754123644006   -0.75345935837503
C          11.24793424485325    9.08433046447414   -1.28175416456117
C          11.15375304638425   10.42415397328703   -1.39265487823162
C           9.98509336408518   11.09420815117023   -1.90176932385067
C           8.79889154047417   10.49399308995184   -2.20161477975718
C           7.69681727571096   11.25367659691547   -2.69185539269127
C           6.47810278763327   10.66102601121269   -2.99238163536583
C           5.38456826897036   11.42619014023071   -3.42349840453693
N           4.50176314244873   12.08169999030487   -3.75777782030542
C           6.29147382259754    9.27854099748744   -2.85563251738103
N           6.17217232949132    8.14012034014663   -2.74242054573953
C           7.93027273574003   12.65395553896807   -2.84887258564144
C           9.12863513866764   13.19620674062995   -2.49413440257464
O          10.15163730151126   12.43284779178047   -2.03467114081979
C           9.52101434369103   14.56970523875033   -2.67588452912012
C           8.77311024334018   15.69734013612839   -2.68161403222767
C           7.40925902715449   15.98742770280062   -2.28973942020935
C           7.00550155593970   17.30120269753269   -2.61043482292600
C           8.06357453149911   18.09353418668768   -3.19166557652061
C           8.03117134915942   19.38934793545760   -3.63274866691104
C           6.89966837465479   20.22579685970631   -3.63538378887018
N           6.01812327229264   20.96056024363345   -3.66397145958386
C           9.19526795887747   20.00134282636741   -4.14739201154876
N          10.14275285636640   20.49371312297614   -4.56528821330797
S           9.54660618852254   17.17527263038555   -3.26834790927660
C           5.71431299029512   17.73179479988296   -2.31732413203756
C           4.84671342800438   16.87199319071299   -1.67119843483948
C           5.26773378889788   15.60724275167578   -1.28061176683613
C           6.54172231522751   15.16256925158063   -1.58000659047854
H           6.03281144858397   -2.77679689295656   -0.02810446392553
H          -1.31212045770909   -4.56502712722912    0.24266413623146
H          -1.41277434830049   -1.86518783309765    0.27545536559779
H           4.34269609462855    0.88462444717080    0.08336539255000
H           6.98348561485983   -0.67970456149879   -0.08698728842894
H           5.45865181331548    2.94697266934280    0.06880140866170
H           9.59083970624050    7.51434677344154   -0.00699865335932
H          18.86641616826954    8.13615000504026    0.22328312015467
H          17.76767787937766   10.49219957896113   -0.50209804303061
H          10.43998388292694    8.46230048749973   -1.63735354318504
H          11.97369199382915   11.06248011688565   -1.09234711173988
H           8.66382942762487    9.43536196238740   -2.06140684106955
H           7.16073852009867   13.27360238618476   -3.27897827479006
H          10.58202106651077   14.68427492516853   -2.86345866972522
H           5.39796182513358   18.72830604085857   -2.57759516863288
H           3.84326552646406   17.19812974233086   -1.44738571616017
H           4.59525289454988   14.96047978361502   -0.73916425593328
H           6.86401023448034   14.19134327321038   -1.24358193622028
