92
 SCF done       -188.726465709916          0.000429330113
C          -1.11553323752951    6.91061221635472   -2.83835977752872
N          -2.41142487364911    6.88282250573108   -2.83729923170587
C          -2.75354271849878    5.77475579032916   -2.10525745433935
C          -1.55271149312171    5.07476089386662   -1.64041093572598
C          -1.91247369593904    3.89560592121318   -0.83900207015393
O          -1.18501116713933    3.09577904926870   -0.29795899533852
C          -3.39397166700683    3.94418090596260   -0.85474624547932
C          -3.85624793699413    5.11222000826785   -1.64598531808388
N          -5.21526921714517    5.17243910583460   -1.65463323311653
C          -5.60745227639297    4.15306374469747   -0.94061004289980
C          -4.51985257934927    3.34431095993633   -0.40497111979687
C          -0.48153819606816    5.80486885551227   -2.09991382473352
C           0.90141977796650    5.56038154956952   -1.90118141090118
C           1.89089395047940    6.40114931253618   -2.29411126433366
C           3.27268581402826    6.18605932107170   -2.06436548952150
C           3.91905592486949    5.08996665518132   -1.51086440133778
C           5.29362822681630    5.28506754981042   -1.41625319960667
C           5.70626088698515    6.54388655727563   -1.89775198022566
S           4.40206908568116    7.47013124859939   -2.48348762433577
C           7.10410560421728    6.66367437162526   -1.71155484874235
C           7.58082559176054    5.48216380437815   -1.11573176960175
C           6.46306336058658    4.56989662933126   -0.92761931773162
C           6.50998388907423    3.31008390894408   -0.40936670277939
C           5.36044219800158    2.49983968141910   -0.28820411259403
N           4.43168712609422    1.83509345721987   -0.19334424041584
C           7.71860562246711    2.72992754634506    0.03182489951159
N           8.70188640266636    2.26175619469349    0.38989343891915
C           8.94841519298505    5.52081888277979   -0.85262185571200
C           9.51599139733333    6.72213403926017   -1.23990563011946
S           8.34115132103822    7.81628278061453   -1.95665793836255
C          10.86179371157696    7.13198463603960   -1.07327249636512
C          11.42981772152187    8.33891356668099   -1.44274103728283
C          12.76923910786570    8.42004002242128   -1.06640666882738
C          13.22326442632960    7.26422245487907   -0.40711313883756
S          12.00685415445627    6.07477713602341   -0.26003170957797
C          14.57406372461630    7.46017913660585   -0.02952210446467
C          14.97765975081760    8.74070598732389   -0.45021443658838
C          13.86002666736972    9.38179304053294   -1.12520254804249
C          13.83545319878236   10.62351339880158   -1.68752417348127
C          12.67989437988313   11.13827853245549   -2.31293909440679
N          11.73928942806976   11.55438057870579   -2.81924025455110
C          14.96339390871194   11.47165316912234   -1.67876255671010
N          15.87965519827574   12.16036255549634   -1.67040464496004
C          16.28938268822519    9.04160126630593   -0.08793005319920
C          16.88509749082984    8.00292521249638    0.60594508356468
S          15.80769688000854    6.62588571587179    0.80269442668320
C          18.18653900535024    7.96407107974014    1.16378515665107
C          18.76131959775471    6.92048212647108    1.87125058877874
C          20.04501845881574    7.23526770673256    2.30725640742346
C          20.45363488998276    8.52773763348176    1.92972331495914
S          19.25482367127315    9.35147858652315    1.03145819632735
C          21.75594090941352    8.76260565296471    2.43257597722796
C          22.17154563626527    7.60496607253705    3.13316378372586
C          21.11409583812360    6.61250440364187    3.07438848762811
C          21.11162552045911    5.36583259283418    3.62842754777492
C          20.01101180690746    4.49244844263836    3.50115740269338
N          19.11464240683230    3.78540109956266    3.39611085034333
C          22.20827017022187    4.87586167858369    4.36883533386221
N          23.09887271367343    4.48315489961645    4.97459227638755
C          23.44108920132792    7.73310043987022    3.68187142582222
C          23.99538325055163    8.97612276228312    3.41356534831576
S          22.93018703363435    9.99334685882037    2.44337624299849
C          25.24057120452676    9.56333179611884    3.72522748692619
N          25.52196272036952   10.72095676220192    3.12743987132715
C          26.75334178932480   11.05944258017004    3.53320774847898
C          27.30178978494707   10.04908236499617    4.45812620968853
C          28.65520732959281   10.44357566515476    4.89587943676116
O          29.41686601959733    9.85399533820241    5.63119659189730
C          28.85663468577852   11.72864766789174    4.20599929019105
C          27.67842414694250   12.06360083815345    3.38151534237287
N          27.85507369216296   13.24955645998726    2.75181304577430
C          29.04110215474688   13.66362895971199    3.13109499281128
C          29.71859408493559   12.76624709285922    4.04195069672748
C          26.33085462118243    9.09574072331703    4.61215545492076
C          26.30584966050052    7.93658272777240    5.46455770090716
C          27.37360804470209    7.48280995523244    6.12025616999196
H          -0.59623583930778    7.69613752097840   -3.35954896014177
H          -6.65637473301135    3.96670683961525   -0.78697120979118
H          -4.63758725272771    2.47165663933330    0.20651789395882
H           1.13861252350719    4.64620856886625   -1.37497086328331
H           1.63877065547902    7.32603891711155   -2.79509421875033
H           3.40389571095651    4.20132137579061   -1.19606110022892
H           9.51557641039053    4.72990257801699   -0.39545486565316
H          10.87922338341578    9.11014649596396   -1.95094656565256
H          16.79731587371490    9.96475741412470   -0.30256762714479
H          18.25368466767555    5.98999212266466    2.05223636430040
H          23.94554366496329    6.95421870783340    4.22228369689644
H          29.43146136256681   14.59746369552108    2.76505298538492
H          30.68919526599925   12.92452282983859    4.46863465772543
H          25.35312699348927    7.44116984329624    5.58178605163146
H          28.33576120980364    7.95956030849955    6.03858568395497
H          27.30623530165494    6.62005531743214    6.76052680079282
