96
 SCF done       -185.200555799347          0.000449882775
C           6.05781054488149   -1.19306103928776    1.90347251196825
N           5.80411166449039   -2.44407143717875    1.67124166351827
C           5.38139175893935   -2.49357382011715    0.36649115636213
C           5.38590914300821   -1.15998274676034   -0.22671674573481
C           4.93235562251631   -1.20756356920454   -1.62041049292952
O           4.81211123213307   -0.29933811001328   -2.41363281030426
C           4.65637766282877   -2.65172936572013   -1.81518692664715
C           4.94792604720930   -3.39519122457510   -0.56949703506944
N           4.69586624387869   -4.72072976283627   -0.73454044133585
C           4.27841002996211   -4.83795986555486   -1.96787049688877
C           4.22861686279976   -3.58354780413333   -2.70075568920433
C           5.82189389968164   -0.30011609026752    0.76010428353026
C           5.99396938492961    1.10195085188047    0.69189628733181
C           6.42237734997154    1.88607294145684    1.71657976022062
C           6.57822276721884    3.28907261591914    1.64275757247887
N           7.01025922689999    4.01671704057225    2.73603197874420
C           7.05681059321714    5.32983323977835    2.39396792811636
C           7.34606476134813    6.60391953884399    2.86330332610288
C           7.10474556491320    7.47689476377399    1.79065797784596
N           6.68271136923214    6.74814177617151    0.69675098881040
C           6.64237526312363    5.43443286327143    1.03705555340152
C           6.34488568579119    4.16343340725265    0.56846666590254
C           7.21553682645707    8.88517529434264    1.71136488530222
C           7.61022923924588    9.70262316878681    2.72252073659125
C           7.68204291291227   11.11315632730743    2.62444932142047
C           7.37838277491688   11.93320281484415    1.54748439699983
C           7.55004634568731   13.28144024842363    1.84325488366219
C           7.99351927914960   13.50952832329958    3.15947701279588
S           8.19761106448398   12.04909635325185    4.02530437106449
C           8.11689866481266   14.90520749622482    3.35390421369014
C           7.74974777524813   15.56219621004676    2.16587101609041
C           7.38518753525578   14.56351221331916    1.17650517459380
C           6.96919773109211   14.78015293559168   -0.10518435860563
C           6.64331644246798   13.71771271785612   -0.97281534529192
N           6.37823981238705   12.84946033715917   -1.67386708806466
C           6.83479222422112   16.07747902033411   -0.64114317467874
N           6.71869925288334   17.13178888852984   -1.07734964562297
C           7.82532238192980   16.95085011130845    2.25871132599318
C           8.24832787410783   17.36936858360106    3.50709136902375
S           8.56078231271730   16.00785524165388    4.58368901812706
C           8.42095594972728   18.70717903003868    3.94436797734164
N           8.88395011485104   19.02810556345997    5.20135829880156
C           8.92973895641697   20.38466025725355    5.30850106631510
C           9.25996812636020   21.43577647112272    6.14874764229957
C           8.98533998392523   22.61219139541995    5.42628308554868
N           8.48815940213345   22.27764805082498    4.18230519776691
C           8.47026852019838   20.92837982295612    4.07683533253236
C           8.15499055725765   19.87713350203390    3.22305527367842
C           9.18500214532937   23.93995622419599    5.84721473765105
C           8.70425557113564   25.05309137222588    5.21477650632888
C           8.93073681111708   26.37896729461131    5.62631586334163
C           9.93913882729575   26.90390654118758    6.39527922621040
C           9.72039015802185   28.21639809737504    7.05031698670414
O           8.80029859426478   28.98113377152480    6.85893836210720
C          10.83103953391297   28.36650788513416    8.01447549099076
C          11.03897040330982   29.34570042122563    8.94107894914051
C          12.17120086763608   29.26449937007536    9.78343350259379
C          13.06306725242621   28.16172892622934    9.64939494260843
C          14.18633141213423   28.08246867079437   10.49639679820629
C          14.41519709142775   29.05380708547137   11.43015831786339
C          13.53346812511071   30.14439883506189   11.56080487847066
C          12.43433565834779   30.24909675921618   10.75513764292100
F          13.78141913782591   31.08242281681819   12.48681312411224
F          15.48534790257474   28.97614536476650   12.23430124150518
C          12.82368990226902   27.16554560988650    8.67420367244830
C          11.72669109565927   27.27090630011001    7.86278621296062
C          11.24773155269224   26.42837272296331    6.76550634970878
C          12.03244466398058   25.53070120320846    6.07983613483524
C          11.65058335595920   24.90356500296911    4.88029741725846
N          11.40207382932647   24.38738460257018    3.88445615411043
C          13.34448337443627   25.18535108687445    6.45560114905467
N          14.40876254688757   24.84875506571287    6.72686459776435
H           6.41057812385116   -0.89046791500072    2.87449339888668
H           4.00639796721797   -5.80225576959477   -2.36116347162824
H           3.91457755834567   -3.47058855535057   -3.71974687278170
H           5.75314486571056    1.55081692716201   -0.26124833779760
H           6.66336991867163    1.43051789606597    2.66868017990299
H           7.24310798774001    3.61839703995039    3.62943602212367
H           7.68259374991308    6.88795783152148    3.83932042342913
H           6.44559754239663    7.14582432231377   -0.19598724127545
H           6.00419706066954    3.88055158125933   -0.40616650558753
H           6.94973752748033    9.32199158170765    0.75810698224015
H           7.88335812050321    9.27471032834608    3.67610140223747
H           7.04508461952893   11.55963319231766    0.59757849167170
H           7.58821195099322   17.63211431755501    1.46363639915493
H           9.14919036524643   18.35612744568446    5.90106631446045
H           9.63943742583458   21.39859115740507    7.15015187372380
H           8.33709687163955   22.93695531870581    3.43881671465307
H           7.78446243609774   19.92541414555609    2.22021867240732
H           9.72665822582054   24.05916215583318    6.77607633061423
H           8.01887426787632   24.92818251019211    4.38713246065802
H           8.17078929943823   27.10414439295758    5.34930979772420
H          10.35038107453064   30.17199360496361    9.03105233099942
H          14.87390374553048   27.25600869982282   10.40643440333850
H          11.76875125247482   31.09057764708681   10.86755641123033
H          13.51276349635960   26.33951453322675    8.59999656199126
