100
 SCF done       -175.893632605668          0.000812061049
C          -1.58309198944406   -0.49891406977326    0.05641948548210
S          -0.55834472283215    0.18087824552619   -1.12961470582111
C           0.17541071133866    1.24436350157326    0.05011535814791
C          -0.39781524049888    1.06519820952851    1.29413976063558
C          -1.39684964331613    0.05937396050041    1.28842682925547
C          -2.18220401981040   -0.31744735121055    2.49726203309899
S          -3.94677540919100    0.20849863221991    2.28952579388590
C          -1.57861852100483    0.26170888560928    3.77168348631578
C          -1.18010540843781    1.71886084129321    3.57107974007560
C          -0.06190340505868    1.82935767984959    2.53593698268799
C           1.20019959688665    2.11810394992814   -0.41795189935806
C           2.09960432195321    2.79319618303683    0.33379601291760
C           3.07799546568183    3.67944091826439   -0.19503926026800
C           3.29984959663916    4.08399838644810   -1.49732487733156
C           4.35048589412212    4.99726194957682   -1.60059021471414
C           4.94442452085561    5.29577854128712   -0.35490268357733
S           4.20238725528009    4.44644806428904    0.92859438160581
C           5.97223668594162    6.23481133916497   -0.55556265524093
C           6.03965482014929    6.54066048414949   -1.93295643629643
C           5.00941117500333    5.77378715450538   -2.62862940561784
C           4.69418491041911    5.80681043568548   -3.95803726995573
C           3.64273604583160    5.02867126891967   -4.48906404324037
N           2.77740236623662    4.41366212757544   -4.92342304701974
C           5.32755691120905    6.63152042949215   -4.90684043289549
N           5.78570233505989    7.29736733351904   -5.72237541463428
C           7.01815716501678    7.46694263489632   -2.24467649739329
C           7.72011899474451    7.90483257415021   -1.11579513028307
S           7.12727951182931    7.11306316464797    0.35126333970712
C           8.74834503876482    8.84388035737590   -0.98303031834774
C           9.36425963369941    9.56318628976751   -1.98618914029762
C          10.36934116979425   10.54419341338136   -1.81896358302261
C          10.80004878943843   11.11995327538680   -2.98321436301606
C          10.16454137432394   10.61214272721932   -4.12880179963337
S           8.99718690302860    9.38951231069765   -3.68567019395338
C          10.30758084968905   10.91075385741638   -5.47723346429172
C          11.07589558362135   11.87422856735251   -6.15486560242666
C          10.90274277014073   11.85611030362665   -7.51268020033879
C          10.00057350174354   10.87046248759158   -7.97611745268897
S           9.38209289184515    9.96484603043714   -6.61181815324016
C           9.56772662650503   10.66175086770221   -9.26959156239004
C           8.68485392981379    9.64649753868816   -9.66259897913277
C           8.31298369251623    8.49538610370617   -8.96557727739992
C           7.33595230574160    7.77164420566415   -9.61958144930749
C           6.93522105178924    8.34042733027314  -10.84644277606116
S           7.81446463711455    9.76826680771296  -11.19916708658128
C           5.90190918963309    7.54291053686582  -11.38387565695431
C           5.63980060830828    6.48181906542240  -10.49292488075126
C           6.54012035850462    6.57815879557236   -9.36602692086357
C           6.64321482140195    5.73562377109996   -8.29726499182539
C           7.64062295468442    5.87036930440486   -7.30836841828960
N           8.47437265191447    5.91908863680245   -6.52160079503694
C           5.77714596226978    4.63659809223468   -8.12468856702592
N           5.07125637587727    3.74580146014571   -7.96968005801040
C           4.62582807081459    5.63214071517028  -10.93667030015379
C           4.11188024052069    6.02242028105405  -12.15435414213310
S           4.88948017997909    7.48426996049077  -12.75995686818294
C           3.07188099718688    5.41714604471294  -12.92008743478255
S           2.12599585076385    6.40665905542507  -13.98968484763761
C           1.14703504331993    5.05150244655070  -14.47081606261822
C           1.54702795557011    3.90103927508570  -13.82599938317897
C           2.65031262427943    4.09951490557437  -12.96107106443652
C           3.29901638665626    2.96835379486918  -12.22877840772297
S           5.13009393303930    2.96367867141733  -12.48202819575472
C           2.73496625469416    1.61059061540289  -12.63488539064458
C           1.21845207158609    1.68852375364492  -12.74976410500689
C           0.85658323972455    2.57760858507155  -13.93560084072544
C           0.09116023944899    5.30720622087620  -15.41515209691744
C          -0.55850124995452    4.41888879219313  -16.16387839231374
H          -2.27991041739673   -1.26825468475114   -0.21191284754781
H          -2.27422225958280   -1.40405001133584    2.57505642612834
H          -3.68626878692571    1.46977199082925    1.95415942571321
H          -0.69309292367400   -0.32356709231898    4.03389382102125
H          -2.29897152442823    0.17102225590788    4.58617356510923
H          -0.84359985207504    2.14529286591248    4.51729585498167
H          -2.04830463966888    2.29345157980030    3.23966140412584
H           0.86235592729173    1.42709923297419    2.96509193275100
H           0.11283508518414    2.87909496210536    2.28842869790523
H           1.25382155966026    2.20824598042367   -1.49449099182653
H           2.12195000180812    2.66896116730322    1.40491437909034
H           2.71918717347455    3.73249951184773   -2.32958074800698
H           7.21586962399115    7.81598878546046   -3.24028858402349
H           9.09455100201142    9.03434806938328    0.02491860866016
H          10.74377465912644   10.80049898472959   -0.84334754341306
H          11.55628033538783   11.88261143430561   -3.03985694148070
H          11.71860365970650   12.56251106021869   -5.63512810243179
H          11.39874041462863   12.52569593447585   -8.19346151169484
H           9.88658863273698   11.36946519304510  -10.02289176742467
H           8.76615687059905    8.17936583667556   -8.04635460433335
H           4.26583694546757    4.79121292207683  -10.37599616563417
H           3.19252465601744    3.10062870500317  -11.14848615207572
H           5.07329179182932    2.84534774651379  -13.80784428270360
H           3.03732818724738    0.86552860381275  -11.89824886722402
H           3.15018239521320    1.31387828185808  -13.60180801665704
H           0.79993842121747    2.10398691559734  -11.83090538615629
H           0.80108877808900    0.69104822022681  -12.89339946798467
H          -0.22321176606722    2.73633133679239  -13.97932369332087
H           1.16012949026085    2.08010718253957  -14.86266800985411
H          -0.15556591954186    6.35681483701639  -15.51891258104642
H          -0.33664666634105    3.36815701850574  -16.15726756865675
H          -1.33388629058519    4.73711444478649  -16.83893828870414
