92
 SCF done       -185.182221627811          0.000516244287
C           3.69244107050635   -0.12868024822625    5.39866897072339
N           2.79140460125250   -0.81242174764867    6.03087000137501
C           1.58845593897632   -0.38362599430854    5.53330308909109
C           1.79411619813088    0.64024852839420    4.50233049780642
C           0.50520209867133    1.11530265710642    3.97277151144519
O           0.29833985827664    1.94670498655913    3.12099289418792
C          -0.46906920554599    0.31925748517278    4.75558653160884
C           0.24789383769870   -0.58369350662431    5.69407207418148
N          -0.63983432663277   -1.31066640114219    6.42453504756841
C          -1.81687635172535   -0.92607687897019    6.01501733613658
C          -1.78448346053354    0.09497219404326    4.97372348654064
C           3.15316962808261    0.82284230304421    4.41018948692342
C           3.86889153880899    1.72101614148249    3.57504166185847
C           5.21265103265998    1.89442586431682    3.62510282420698
C           5.95056302555405    2.80709153197682    2.82861959444561
C           5.52543079725789    3.64456120552418    1.80544231098313
C           6.56848469294699    4.40749499402804    1.28918984729478
C           7.80191352132547    4.15760013075536    1.92666144008723
S           7.67155997100396    2.97422226508498    3.14441715266467
C           8.79277194515274    4.99277235937972    1.35892266557966
C           8.18278427847887    5.77032657684661    0.34700657972749
C           6.77021183406644    5.43914871852804    0.28093698786839
C           5.83224273138749    6.01598740380304   -0.52470327589896
C           4.48012286606779    5.61063300961885   -0.51913657767358
N           3.38440491560597    5.27482033051880   -0.52330389947564
C           6.15485150022777    7.07610384564713   -1.39769489888132
N           6.41670984126113    7.95604786055250   -2.08548262481481
C           9.07504328842656    6.62565331566439   -0.28494473231410
C          10.34949641375625    6.53035045454925    0.25609490163902
S          10.45347934203337    5.32343454025431    1.53272735429920
C          11.55575318840026    7.18264793411256   -0.08103102098506
N          12.68939380188017    6.69242921547023    0.41041769719998
C          13.68205949070745    7.40311318666638   -0.15199420642028
C          13.14382553280976    8.40854112859013   -1.07707295781955
C          14.23028139639977    9.20124500164427   -1.68320017123069
O          14.14327266687339   10.11020507802305   -2.47624762043911
C          15.43122974070179    8.60852801647547   -1.06466547570155
C          15.05228794949510    7.51617079895682   -0.14121482090759
N          16.14886609474829    6.98902133286096    0.45219886944978
C          17.15995346591313    7.67442448311521   -0.02631089996425
C          16.78221582568969    8.70712789271843   -0.96952449129827
C          11.77900951176819    8.31989404010720   -1.00619525953315
C          10.83809996531224    9.17646274994957   -1.65590591975540
C           9.65647442431208    9.56957821132468   -1.12980760253824
C           8.73403291010006   10.43939480519919   -1.77285674620804
C           8.78795725795258   10.98815863966717   -3.04471757491712
C           7.68820273126958   11.79868505583548   -3.30737847124270
C           6.78372326068050   11.86931878600332   -2.22916793576844
S           7.29176749392822   10.92945367146129   -0.90221407705275
C           5.72161629805545   12.73847084353539   -2.57775172859686
C           5.96103730284500   13.22229238585246   -3.88565643772547
C           7.19454516535457   12.64081383380120   -4.38628805343876
C           7.77075074687954   12.84819407366615   -5.60496426168934
C           8.96743842808616   12.20865004270196   -5.99283438082805
N           9.93451378372421   11.68545917996804   -6.31688553551857
C           7.20355223555219   13.71943514104541   -6.55922258942764
N           6.74505543701139   14.43611914626569   -7.32770625949727
C           4.98283129965313   14.10610842232690   -4.32153777701164
C           4.00298885225694   14.30622543028395   -3.35950468051014
S           4.28809448554279   13.35695641848568   -1.90191377778789
C           2.82025097772511   15.07674186671528   -3.35128347963852
N           1.95357165441859   14.85221334692923   -2.36469263304013
C           0.90496739037712   15.65265499677989   -2.60277553554077
C           1.11566290535689   16.45226969026684   -3.82526065541732
C          -0.04696552886924   17.32901184756941   -4.06549720439225
O          -0.23771633144206   18.10365683894526   -4.97757196156419
C          -0.92656034385148   17.01877733298146   -2.92600225928735
C          -0.31248666894768   15.98976931662736   -2.06336928729189
N          -1.11438607204864   15.70782461863139   -1.00866963360580
C          -2.16133156987335   16.48432369038279   -1.15882879816307
C          -2.10715087352890   17.33176192257317   -2.33042203185300
C           2.35454705085707   16.11545456973604   -4.30026485822607
C           3.09911788065008   16.66333825849014   -5.40314317948969
C           2.56931162116057   17.47593204076655   -6.31693985468370
H           4.73480877075874   -0.28903677909735    5.61278889173686
H          -2.70858802107850   -1.35430060190022    6.43946440221105
H          -2.64464775845086    0.53898169985928    4.51312359916163
H           3.26548583504445    2.29728919609659    2.88752431720075
H           5.79642181179381    1.32325957714528    4.33429707736209
H           4.50809158507824    3.68394678607268    1.46201835269425
H           8.83327741456853    7.26110774015202   -1.11625058503253
H          18.16467519709590    7.44820222130561    0.28594080895055
H          17.45649006286542    9.37793074338410   -1.46394734628582
H          11.17844093504254    9.59391768742916   -2.59364033429227
H           9.37876267846413    9.24610341955410   -0.13494922027580
H           9.59061282315223   10.80327860558418   -3.73430506528327
H           4.96451734751354   14.55465762078287   -5.29713804214501
H          -2.96575692347181   16.45329746899911   -0.44437827202840
H          -2.85789983071199   18.03732708525970   -2.62669022810606
H           4.14813482203208   16.40965884760574   -5.45270470462057
H           1.53125716392285   17.76128087987896   -6.29008193492616
H           3.16833982730331   17.87738859244617   -7.11615441615086
