90
 SCF done       -194.306086596430          0.000480865943
C          10.90288622051994   -1.74837636547716   -1.47425870313932
N          10.69683166460144   -2.95905411910997   -1.88870695573971
C          11.61010821196329   -3.73208002011103   -1.22100941065968
C          12.47939863922652   -2.89161773410572   -0.38260737709128
C          13.42747695416963   -3.72193901315778    0.38197799736031
O          14.30853484583539   -3.37010982204405    1.12849154657846
C          13.01436577841939   -5.09192875603158    0.00360105034815
C          11.91853382227469   -5.04077464896751   -1.00092592008702
N          11.49266885930629   -6.29587894143655   -1.30473637807520
C          12.19988939714427   -7.08883961701094   -0.54870760863759
C          13.15666514370930   -6.40099248256746    0.30996066897850
C          11.98368197073684   -1.62007904357445   -0.48274782895595
C          12.39250550096444   -0.40568880131016    0.15627419663849
C          11.56747798005602    0.60423046840702    0.50654530218070
C          10.13103341134765    0.58383314359763    0.49714539235747
C           9.34825284816780   -0.56644155249322    0.74271214054971
C           7.90903147091003   -0.53174890387324    0.68590278574254
N           7.21061426635095   -1.66133462491999    0.85300818217466
C           7.82895531459582   -2.78733985806513    1.10327087295283
C           9.25616419712169   -2.80013766935486    1.26218867885120
N           9.95794439539937   -1.71339629677696    1.08149249522417
C           9.92612930553410   -3.99943245845920    1.61279712727697
N          10.44914299783163   -4.98401416110512    1.87478967775999
C           7.07659360855658   -3.97810985988344    1.24967848251548
N           6.48949930845907   -4.95188178409015    1.38504075111023
C           7.18136300018932    0.65482874898003    0.43465563560463
C           7.96139808472197    1.82211733925237    0.27148084506275
C           9.40525532769112    1.77772792576523    0.31414484914055
N           9.93974991522987    2.98835775356556    0.12608851352152
S           8.76691127755175    4.05856534138886   -0.06969551670556
N           7.51861148359590    3.06292665914299    0.05921583032597
C           5.76654927731919    0.64142933913125    0.33858465046988
C           4.94839011171151    1.71523696712569    0.00563196026230
C           3.60877893389144    1.35778532588323   -0.01259567385576
C           3.39953553593046    0.00251516369706    0.32426956503715
S           4.85826664201384   -0.83222913232046    0.63558411467104
C           2.00778955729611   -0.25402347687105    0.27012953078085
C           1.34180656835064    0.92684768670093   -0.11404594803386
C           2.32637322256410    1.98020509202239   -0.29705598806305
C           2.09466861920942    3.27484099108569   -0.65795908768130
C           3.13782994772078    4.21493114278016   -0.79943372813533
N           3.97979072593571    4.98427779200332   -0.91528169444934
C           0.79244845692267    3.75605375157648   -0.91036473799517
N          -0.26790949208542    4.14280530065216   -1.11208397095728
C          -0.03748377096154    0.76266208182481   -0.21313717459504
C          -0.42610340179822   -0.52558251769142    0.10687818609917
S           0.93217491569234   -1.55332812697367    0.52939722426301
C          -1.74831958645586   -1.04386682145016    0.10198149066360
S          -3.06259722571948   -0.09291264906264   -0.54307943551852
C          -4.21039409501254   -1.35802080404971   -0.24139525040131
C          -3.57519656572447   -2.43474394059657    0.36275680918161
C          -2.19247537937367   -2.26681570697288    0.53789573571404
N          -4.24573235521266   -3.63961968878157    0.72705730763610
O          -5.40608968247785   -3.76429978446518    0.39480060325614
O          -3.60896810558681   -4.45250970368333    1.35990774431523
C          -5.59779052663224   -1.19372649031618   -0.53107377680420
C          -6.14151354104960   -0.55241862586829   -1.59080762219591
C          -7.57109349042373   -0.10548499824892   -1.54023607066872
O          -8.39667540662841   -0.43550278645465   -0.72592138117646
C          -7.70435391416467    0.86566337111454   -2.64017535814928
C          -8.77295459383949    1.65341920890898   -2.96239897089259
C          -8.67227256025046    2.53708271697100   -4.05940444232296
C          -7.45449671447711    2.59739164158765   -4.79967540996761
C          -7.35852512238339    3.48584646060659   -5.88833150690056
C          -8.43319509862915    4.26584922403765   -6.21427405964529
C          -9.63937341538249    4.21972711931634   -5.50055656308106
C          -9.74909148807167    3.36493841258187   -4.43949183111904
F          -8.34511632951177    5.11224264375185   -7.25366315264912
C          -6.36492005391775    1.76911317224295   -4.44607788109893
C          -6.49161579867415    0.90844844418489   -3.38862218329243
C          -5.56862345479170   -0.07736934971913   -2.83866037292804
C          -4.50422103143945   -0.62225865127358   -3.50320171957053
C          -3.77310835258024   -1.73955010165610   -3.04797590893240
N          -3.16328632957792   -2.65960699628011   -2.73371186558837
C          -4.05460399304641   -0.17726390216865   -4.76506414801436
N          -3.63633718009954    0.15344051755675   -5.78075520194069
H          10.33794942598208   -0.92439929274706   -1.87805137092400
H          12.05703464098406   -8.15463286705598   -0.59422381477762
H          13.81165884234687   -6.87434425021082    1.01392237397540
H          13.45319926565633   -0.30803825570582    0.34497617677692
H          11.99578579770598    1.54266882733649    0.83264934055128
H           5.34618931330493    2.69031297098462   -0.20790590196571
H          -0.73679200193273    1.52881734946486   -0.49701461147554
H          -1.56203208208977   -3.02701398510497    0.96283373960564
H          -6.29924818375182   -1.58812884856506    0.19918674623919
H          -9.68539110482906    1.60043084087210   -2.38775702190524
H          -6.44679944341148    3.54463152869901   -6.46194749913973
H         -10.45293320301951    4.85910913235984   -5.80437154539977
H         -10.66787349916459    3.31216478038399   -3.87531609105834
H          -5.45176742841038    1.84221191148592   -5.01522064973774
