92
 SCF done       -181.648182795075          0.000776414595
C           8.12709330830736    6.51191536623884   -0.52341774159201
N           7.92536723350727    7.75359809880322   -0.20794051330352
C           6.78311664462243    7.76067496509467    0.54266092805739
C           6.26251882913458    6.39268360202428    0.71008555680814
C           5.00802277808850    6.41547395859933    1.47769194783463
O           4.30095906379811    5.48248205696336    1.80076467349208
C           4.81229923689117    7.84797527924091    1.74547259470575
C           5.93293728820732    8.63325076410088    1.15983012873629
N           5.74603508909040    9.95912525559458    1.38840888207019
C           4.61923968914952   10.04086855865093    2.04345429617176
C           3.97461984706521    8.75647299816668    2.29599486328434
C           7.12484336447284    5.57643526272633    0.01078950666299
C           7.10801649232950    4.17441843398817   -0.21939824631208
C           6.23191445479222    3.34738462670089    0.40765016129441
C           6.15673797203386    1.95548731550826    0.13577984463036
N           7.07334905731622    1.35514925628113   -0.61245508175054
C           6.75580700121092    0.04678978108997   -0.62404934151082
C           5.55311812059799   -0.21043763287436    0.17673592593952
C           5.21432525825007   -1.64366012948711    0.17260313980061
O           4.29473541474050   -2.20164130293112    0.72665780633386
C           6.28148335316235   -2.21639067477558   -0.67383200179701
C           7.19789538690333   -1.14894237713801   -1.13769891151664
N           8.17508822093796   -1.66529005054019   -1.92193801938563
C           7.92775080546121   -2.95062535610813   -1.97556247691293
C           6.75705424814816   -3.36227394359074   -1.22147312049320
C           5.13267757145655    1.00486377176572    0.65562833940091
C           3.97856331635948    1.21296135039761    1.46234817961537
C           3.37730852399938    2.38946716295596    1.75736837437976
C           2.25135959887493    2.52790631457281    2.60627038681593
C           1.72613344891492    3.74104400217353    3.03567242608454
C           0.64531036433606    3.56592842662269    3.89221530929672
C           0.33788435660245    2.20395990907944    4.10142065996526
S           1.38633517671381    1.15042328659736    3.26368494369869
C          -0.76787382203012    2.12065871567848    4.97166233231697
C          -1.16829069019040    3.43214270071860    5.32993667302125
C          -0.28713514056670    4.37818953891975    4.65945501979798
C          -0.32569349438304    5.73847429564525    4.74106453705123
C           0.58586588203955    6.57629287042231    4.06651395667335
N           1.31708295046752    7.28883481187489    3.54413934901541
C          -1.28637445738056    6.42402718706918    5.51805339128644
N          -2.05898886558623    7.00099856752293    6.13710153050958
C          -2.24664634850398    3.43924172465157    6.19774879418233
C          -2.69216387199263    2.14950426482087    6.49646050221418
S          -1.72870360411054    0.91921076009427    5.68655440301485
C          -3.75910735292138    1.86456099839511    7.37353278587685
N          -4.31156827487869    2.85727251994839    8.07208893442404
C          -5.25056469073181    2.29400792769533    8.84321973195996
C          -5.31894390847299    0.84068911898201    8.63378321405068
C          -6.35542005323688    0.23808200663577    9.49501760367596
O          -6.66819306045715   -0.93056410114808    9.58517495513898
C          -6.89285481323845    1.40225740446046   10.20952638474163
C          -6.19445391085210    2.63642135349997    9.78902280456457
N          -6.68773396728199    3.70995364672679   10.44135586746468
C          -7.63212210423068    3.23417047129191   11.22340442801407
C          -7.81367295258787    1.80420377488943   11.12680304791604
C          -4.37790063418298    0.54729407182039    7.67581141839332
C          -4.06846695663083   -0.68834771708030    7.05514215633727
C          -4.59978115878539   -1.89126415235811    7.39700715967343
C          -4.20003396594168   -3.05370389830383    6.68674872795264
N          -3.30566221064293   -2.98019778841602    5.70317969669168
C          -3.14797215887999   -4.23456558616802    5.25545841167447
C          -3.99816504932187   -5.18526396414256    6.00274582696736
C          -3.79888098092324   -6.55215563027162    5.48986190450986
O          -4.31947219138297   -7.58395555341983    5.85400081821392
C          -2.80337921350601   -6.35691708610960    4.41768682872834
C          -2.43684587942615   -4.93027860605918    4.31076956144302
N          -1.52222729459721   -4.74283059166657    3.32747900376333
C          -1.30443360188968   -5.93608362180396    2.83121572335715
C          -2.07122530506938   -6.98978432936486    3.46517207002112
C          -4.68003239055707   -4.43743786240716    6.92345637701608
C          -5.64719826633605   -4.81116939104869    7.91829675048872
C          -6.04862454880767   -6.06832261873421    8.11077290403222
H           8.97318485520842    6.22565252481313   -1.12420777917525
H           4.23885806678631   10.99909855314783    2.35274612243835
H           3.04306944381873    8.60809088985233    2.80606312022680
H           7.80636850019539    3.76314620768276   -0.93495091914300
H           5.56559167344867    3.75917967965499    1.14767352094127
H           8.56924195234538   -3.60417285589793   -2.54098155849418
H           6.38872278245631   -4.36580449048337   -1.14188081769068
H           3.54416101563247    0.29563513383492    1.84685581962651
H           3.73081500278697    3.32697853328526    1.35958124919365
H           2.15218588298601    4.68182581870995    2.73568955373168
H          -2.72852118489361    4.30193871312159    6.62094284261922
H          -8.18990560435262    3.89635885889678   11.86242131227140
H          -8.52918724095752    1.22593765204157   11.67697283006682
H          -3.36885636615832   -0.69649719079758    6.23220721964540
H          -5.31712046255128   -1.97761884640696    8.20016045055558
H          -0.60487456478886   -6.06790802458231    2.02393842797394
H          -2.03548068013689   -8.02923679202530    3.20557218280763
H          -6.05063895952801   -4.01001414604567    8.52274595478765
H          -5.66150123041199   -6.88295532968187    7.52113537072789
H          -6.77493503951981   -6.31261945859030    8.86686608991277
