98
 SCF done       -183.197770266990          0.000615993442
C           6.28103091569051    4.02771247685182    7.58343661979368
N           5.58456898415697    3.26203373945307    8.36449683989932
C           4.47362296812410    2.91840102432418    7.64236400758261
C           4.50773648107022    3.53781195794988    6.30988055554941
C           3.31770776126309    3.16434283062388    5.53852239050726
O           3.01203744227540    3.49325167327707    4.40944391809038
C           2.58424817866150    2.28968855104746    6.47568267948954
C           3.33424223732466    2.17283165235756    7.75214597289040
N           2.66899034285752    1.36556439863104    8.62032819575064
C           1.59456956624806    0.98731422693391    7.98413589275876
C           1.47781764544092    1.52729300913868    6.63517401213343
C           5.68115279264570    4.25808743447152    6.26024671449828
C           6.24942657228586    5.04449329905960    5.22527667759315
C           5.63094880692503    5.20169164400804    4.02748056993228
C           6.13025903835079    5.95020137118920    2.93697632033748
S           7.66098775195503    6.77288355811257    2.99098573280381
C           7.49243102787828    7.33493392452263    1.35111467287197
C           6.27294894512034    6.91893878268638    0.81496917223893
C           5.51490400040675    6.14120951626768    1.70340065579076
C           4.15747838153931    5.65586391136805    1.30156311782763
C           3.23830313665530    6.85031267917537    1.09341704556366
S           4.04656064790020    8.10288378366861    0.02587577302076
O           4.34996505435177    9.25412136350093    0.82684127058402
O           3.26733379886361    8.29489658784883   -1.16354576265531
C           5.65848747919246    7.34038980271713   -0.45690343867792
C           8.56346150496956    8.07258981430550    0.79754394227783
C           8.83663614002506    8.25881875046604   -0.52327918134401
C           9.95479516235598    9.02147831107377   -0.93647393379325
N          10.76096100411034    9.62676654268326   -0.06818263890679
C          11.69493264718150   10.25103859616331   -0.80090352436006
C          11.48545237549042   10.03299953244306   -2.24200724952127
C          12.52257232348249   10.72274320663182   -3.02242285311790
O          12.66553922577510   10.75010089404040   -4.23105258166706
C          13.34064335954959   11.36302883142281   -1.98351248910663
C          12.80643264759487   11.04879792691944   -0.64222174813613
N          13.55583295908588   11.63401514881501    0.31962008205994
C          14.49958744764668   12.28013893823205   -0.32540777997177
C          14.42459780718599   12.15392407872473   -1.76466936922802
C          10.36584556236754    9.24262485630871   -2.34556204280495
C           9.71424579092408    8.72913753388634   -3.49870584529821
C          10.17081345880119    8.97584113308470   -4.75058970763557
C           9.57852579294601    8.49371750963221   -5.94193689446911
S           8.12927641629539    7.53416950051881   -5.94156549243128
C           8.12465450994374    7.41275057557271   -7.68123526215400
C           9.23170435248369    8.07189355959231   -8.21507910305681
C          10.03568118642705    8.68482117949660   -7.24047135305400
C          11.28396790048316    9.40635221310962   -7.64189161317135
C          12.26122721607298    8.41494908369850   -8.25306136878458
S          11.43196250642584    7.43452946672628   -9.56081940516605
O          11.37196743180989    6.06563481342241   -9.13402362147244
O          12.04401370348041    7.71785130226008  -10.82868404059400
C           9.69916472144523    8.06846482932107   -9.61362010963331
C           7.03377162296619    6.73333423572641   -8.26841172989266
C           6.62101152409440    6.76056706972216   -9.56553627601599
C           5.47262267187527    6.03577273270234   -9.96786236488097
N           4.76281977463943    5.31511444473186   -9.10039917803706
C           3.75237961623204    4.78576156182875   -9.80288594050939
C           3.81426632820448    5.18654907736467  -11.22464529605393
C           2.68897734268249    4.59408699934778  -11.96997401329482
O           2.41774187183712    4.70192305911817  -13.14693956906569
C           1.97110129602708    3.84009465707115  -10.92803406372773
C           2.65132709126436    3.98254561438727   -9.62556805007015
N           1.99223506827694    3.29291343627929   -8.66315463195968
C           0.96899942286615    2.74537350885439   -9.27567080371758
C           0.89500889075509    3.04523580736860  -10.68903988711483
C           4.91480408040139    5.98887072754156  -11.34268045039042
C           5.46734340605056    6.65829876300459  -12.48923996317270
C           4.93656087996687    6.58719382975387  -13.70968530053732
H           7.21856366730410    4.44236685723134    7.91293666446391
H           0.88359900401519    0.33155273840371    8.45610906615258
H           0.67123831434858    1.33263815821688    5.95625841832616
H           7.20364169152195    5.51696683514997    5.41877135328268
H           4.67637136058865    4.71475459581044    3.87791678137344
H           3.72972775070544    4.99111550992011    2.05300265944052
H           4.23892629977504    5.09269061490870    0.36754906419027
H           3.02970735702006    7.36275237643294    2.02827557266343
H           2.31383709542976    6.57650541283711    0.59497946849064
H           6.19940192554057    8.12541983300417   -0.97278884579182
H           5.42026263154533    6.52210872286555   -1.13187521997249
H           9.27462076853632    8.49309712375464    1.49771852052750
H           8.23528304465039    7.79842132209138   -1.29131322170186
H          15.24124997908172   12.84014771100023    0.21703843181078
H          15.09814814930621   12.60346741150552   -2.46719406521712
H           8.82951377588465    8.12111239808170   -3.36364265573565
H          11.05835379107014    9.58301619188790   -4.86575734874305
H          11.74992049890790    9.90417416110309   -6.79065065541115
H          11.03556136032984   10.17347349450040   -8.38100427719226
H          12.60687392363872    7.68963814188184   -7.52204022004002
H          13.10344988857940    8.90646123371870   -8.72987388615688
H           9.16956683231624    7.37466154347627  -10.25606947719420
H           9.75144980788627    9.05576345210880  -10.06654457317154
H           6.41506884892337    6.15577641377189   -7.59221701997704
H           7.12318717024473    7.35778175865283  -10.30967332579329
H           0.27305761267830    2.13429634195015   -8.72749777702520
H           0.13839038016180    2.69564897994663  -11.36327249296842
H           6.36410880499919    7.24113411865975  -12.32300011196615
H           4.04552038116419    6.01448229590005  -13.90541812686067
H           5.38214188410972    7.10128739868895  -14.54402960318362
