76
 SCF done       -147.977252266270          0.000709340433
C           4.64537903935347   -3.51660622471352   -4.02149961495362
C           4.23011660967895   -2.36895071912883   -3.10814774012944
N           3.83276031920512   -1.20680897523207   -3.87427410366024
C           2.54165791824519   -1.00987475296459   -4.34688479053143
O           1.61222899096574   -1.74904686414954   -4.14539879612376
C           2.59106994170140    0.26314245828177   -5.10450664509583
C           1.61264987104323    0.94654422584078   -5.79827586481960
C           1.97352518693207    2.12656619861604   -6.43180024003850
C           3.27721914528091    2.63631392508193   -6.37341218825542
C           3.56957547019731    3.87068311273879   -7.07003081358498
C           4.69208720925710    4.60073986962338   -6.95856360487248
C           4.90615820317984    5.80713029496194   -7.71627691413304
N           6.06001053795456    6.47172431145773   -7.52363949044426
C           6.27843833770491    7.51368853750585   -8.27754420428153
C           5.36772285359779    7.88015220292014   -9.29726528762450
C           5.65020479868459    8.90741191836200  -10.26105105339257
C           4.74125584614489    9.28323687562264  -11.20651028064769
C           5.17798135173804   10.29342330974838  -12.13289754054633
C           6.44157868368367   10.74930858147736  -11.95960849018985
C           7.06304589089834   11.74413215249640  -12.81040783236323
C           8.12975990685282   11.42937479188400  -13.67104746047524
C           8.65060192706495   10.06860828682080  -13.83166841714863
O           8.27667404772150    9.06895526796236  -13.28615910020757
S           9.99283140706332   10.09348245952371  -15.02500499454207
C           9.84060764411835   11.86510078825767  -15.31786979177357
O          10.53398208140536   12.46757949400808  -16.07939505402410
C           8.74863488284056   12.38708225526893  -14.47747346420690
C           8.34599626584392   13.71832901327991  -14.48367421454920
C           7.29434091040106   14.03502337963836  -13.64424764954131
C           6.62281660925239   15.33523011823586  -13.42376533807628
O           6.84227109935331   16.40331895710843  -13.93065855653439
N           5.62603863342812   15.09030589663316  -12.46895382158618
C           4.79023600432024   16.12478289163258  -12.05706555108968
C           3.78870592628991   16.01872877071117  -11.17438134180399
C           2.94553754459393   17.11312352408186  -10.80182256971618
C           2.96507126481278   18.42195216951036  -11.22369717803603
C           1.95528399554849   19.18024978239581  -10.62246957439606
S           1.47766926066276   20.85057009556613  -10.75041974156764
C           0.19742375664772   20.56779379876853   -9.60633001820843
C          -0.79985885938092   21.38538604871379   -9.04158302024844
C          -1.57998713039769   20.68325717294690   -8.17950473248382
S          -1.13099622279571   19.01807894737017   -8.02850222193746
C           0.15335126848066   19.24936659663724   -9.15730920531777
C           1.15571039755816   18.45586558621589   -9.73586564391494
S           1.66129840345566   16.81267080954719   -9.64352323951819
C           5.60789304010269   13.75733278711138  -12.04895214573263
O           4.87761072576721   13.28713871647941  -11.21371719338338
C           6.67093412767668   13.08325304227561  -12.83060141724017
Si          7.21177461490565    9.91579415634965  -10.46118977511727
N           4.20108917168282    7.22490502763268   -9.34142506839705
N           3.96447355085471    6.23794437422214   -8.55973533711093
C           4.26018316822471    1.92786685972516   -5.66054883424305
C           3.89956084717965    0.75442950848141   -5.04358442197693
C           4.71132098272180   -0.20181516702262   -4.24694844965271
O           5.87848176651206   -0.15536381095231   -3.95377543932839
H           4.94179575607386   -4.37361624309589   -3.42349917051595
H           5.48513266320424   -3.21630115232328   -4.64406958891188
H           3.81495387230194   -3.80610872132281   -4.66139204204560
H           5.06432169700324   -2.06804078576483   -2.47001154387187
H           3.37716096537496   -2.66368530304541   -2.49220716039386
H           0.60370117820877    0.56783430501105   -5.84648068130180
H           1.22782387626376    2.67834620746075   -6.98519274427910
H           2.79949179020118    4.23874056239567   -7.73568456781855
H           5.50512316038191    4.33497342103620   -6.30005607595574
H           7.17663289982302    8.08883407017593   -8.09250078653472
H           3.75582146404329    8.84989453486330  -11.27561874147686
H           4.53018570051199   10.62190703583334  -12.93175847431488
H           8.82653099190128   14.45103883342554  -15.11156720575481
H           5.03770156255421   17.05416438929843  -12.55057692484867
H           3.57559303958002   15.07067598618728  -10.70419423917301
H           3.66923133230579   18.81777322802559  -11.93065055663546
H          -0.92672677951764   22.42828573808628   -9.26462714623005
H          -2.41231426031060   21.04170859166996   -7.60739896409521
H           7.38163314279397   10.90031906525405   -9.38690302529055
H           8.43847232328378    9.16395370582746  -10.68291686409852
H           5.27855439780057    2.27687969542814   -5.60719801767318
