99
 SCF done       -184.566149881462          0.000219247346
C           5.23625205104053    0.71327389449856   -2.18934669487630
C           5.55904435274786   -0.58858466749501   -2.43236838632587
C           4.43054633300125   -1.39914646815906   -2.06049776358387
C           3.38793192340135   -0.52297237414557   -1.57401399932893
O           2.27005135359347   -0.73004823436279   -1.15524010923001
N           3.96716709810427    0.75353648168911   -1.68796748649556
C           4.77199669825781   -2.70680486326668   -2.30388859242152
O           6.03954671126713   -2.77139222925393   -2.80606267498997
C           6.58876360618600   -1.48792374245781   -2.91296670202832
O           7.69564184618373   -1.31273690333549   -3.33281496317075
C           4.03597029221558   -3.89230684654794   -2.10734118010954
C           2.74024256414005   -3.99534153646251   -1.63273748747331
C           2.28428362279883   -5.31353568961858   -1.55617080675595
C           0.91504507280809   -5.68195618131918   -1.17703758484928
C           0.34600162855795   -5.16132850192603   -0.03049413464464
C          -0.95340248520851   -5.52774828526244    0.33304888213751
C          -1.66639778640115   -6.40611909240013   -0.46558870184060
C          -1.09635249244449   -6.91386971461635   -1.63592201618387
C           0.19041262433812   -6.55033888970113   -1.99581616196283
O          -1.89007969650736   -7.76030204580225   -2.34507632314857
C          -1.37181710597462   -8.34961470297543   -3.51261529813036
O          -1.41903649186046   -4.97843973506533    1.48365618551812
C          -2.72439326657588   -5.29986785627116    1.90148681142171
C           3.25642282509473   -6.23151996840796   -1.95324000389189
S           4.71782714286323   -5.44991888491284   -2.46062050538177
C           3.17188464462618   -7.65426336479468   -1.91168608734063
C           2.40293226027575   -8.43125450411132   -1.07601123494443
C           2.55619116310785   -9.81299986299648   -1.26841788554408
C           1.80044478035587  -10.76768394805314   -0.44700022315913
C           0.42364596862470  -10.63992598579488   -0.38690623847286
C          -0.32166107362823  -11.49250829262717    0.42908944622384
C           0.32893596265125  -12.43901818437836    1.20135710354659
C           1.72070911424142  -12.55296419320722    1.15866372433236
C           2.45866428125107  -11.72242383964240    0.32558247524054
O           2.24633305095909  -13.47368339101086    1.99786026246732
C           3.61246001381668  -13.78953044981019    1.87575541723565
O          -1.66781243230211  -11.30390238217298    0.40260620115330
C          -2.47724178194450  -12.15008441902260    1.18372243635967
C           3.44966915797031  -10.10980972666627   -2.28819315417600
S           4.12032107505120   -8.64810842366732   -2.97394389943848
C           3.79825261819705  -11.35198579394493   -2.88492391317330
C           4.58056341220053  -11.49394455375190   -4.01891731489924
C           4.74424548840327  -12.81241917624716   -4.44255437647784
C           5.55928583644622  -13.15521605355025   -5.61394947912506
C           6.57242311150581  -14.11329781295805   -5.51771624042304
C           7.34248141289769  -14.40806265087541   -6.63404191257898
C           7.10455863993445  -13.74871601756741   -7.84312184420832
C           6.10857066108039  -12.79014847830350   -7.93271288992919
C           5.33591858837231  -12.49189760472251   -6.80686382581287
O           5.80271636740031  -12.09383485743260   -9.05478785502081
C           6.54510214749717  -12.34106990390835  -10.22603700963266
O           8.34586865352839  -15.32081641350553   -6.66448869744138
C           8.60431812590949  -16.08344564798877   -5.50880669854058
C           4.06113560223835  -13.70991251233032   -3.62005211968603
S           3.24291328767637  -12.88821245253075   -2.30844743366079
C           3.89402959156444  -15.10737617400071   -3.72219240558781
C           3.26948752482412  -15.95084149981044   -2.82008199066051
C           3.33389643675416  -17.29713198797619   -3.31997439197010
C           4.03409319712620  -17.25347415685881   -4.60384666599909
O           4.34487805344574  -18.11248661397337   -5.39077350143808
N           4.32654642226129  -15.89649939323967   -4.76867640669494
C           2.72569212119153  -18.08005235954666   -2.39812717779808
O           2.28140719446204  -17.34592630182082   -1.35463514550946
C           2.59434571835093  -15.99303565468288   -1.55995109445540
O           2.30624871240519  -15.13748527463732   -0.75892078124639
H           5.81128071750455    1.60787155185876   -2.33477541233748
H           3.47910521004376    1.59444531231357   -1.42097542021203
H           2.14946669757204   -3.13388281897632   -1.37478527001132
H           0.89276253955916   -4.48514658448826    0.60564126022850
H          -2.66635944928353   -6.72573247900813   -0.22601110897492
H           0.64707310641843   -6.91843310388623   -2.89965342606380
H          -2.15626804475839   -9.00774816736423   -3.88241075222972
H          -0.47436991659545   -8.94138280666420   -3.30283090475039
H          -1.14053639920378   -7.59778528451602   -4.27416133055019
H          -2.88046405331651   -4.74960800293066    2.82793303413135
H          -2.83104107982983   -6.37207642801268    2.09364357906992
H          -3.46957958273767   -4.98655224703852    1.16376909822327
H           1.76427347047938   -8.01947208913221   -0.31655173259928
H          -0.09629808842919   -9.89612660437691   -0.96845703305485
H          -0.19807760912002  -13.11306320793187    1.85508901984978
H           3.53436555951546  -11.77571364610036    0.29141285247875
H           3.78761852020177  -14.61027185050101    2.56935159876666
H           4.24934444577165  -12.94171226639231    2.15134805864507
H           3.84265422451438  -14.11560134696511    0.85841709066568
H          -3.50253818412708  -11.83987788633692    0.98751055557259
H          -2.26242863185561  -12.03802816716430    2.25121134746541
H          -2.35342949709162  -13.19875802872748    0.89698494365655
H           5.03270398167787  -10.65701928207666   -4.52157331397146
H           6.76072391147328  -14.58302575598479   -4.56545448558625
H           7.72689914865444  -14.01587340161341   -8.68020068500731
H           4.55680219193474  -11.75275543321215   -6.89377230726869
H           6.13041730373272  -11.67638165320762  -10.98194195669534
H           6.43741584121500  -13.37851671517460  -10.55689172984712
H           7.60549039052461  -12.11187004468665  -10.08367162969239
H           9.42218923976656  -16.75028878092476   -5.77562385693786
H           7.73336834502775  -16.67988497373005   -5.21886647164397
H           8.91310449713534  -15.45150488326839   -4.67020472107626
H           4.80773225377557  -15.53153450415795   -5.57911966377276
H           2.54384540740302  -19.13725106991840   -2.35419070060562
