78
 SCF done       -174.896060928312          0.000958760509
C           3.40071137171643    1.56299014012736    2.61585775879100
C           3.18216557063191    0.27199416686765    2.99939878106727
C           3.26067940481766   -0.55303247916957    1.82512873056014
C           3.54186433856091    0.30169335782207    0.69027280864923
O           3.69729262197165    0.06973751113724   -0.48620800197346
N           3.60975182918092    1.58263785803860    1.26853974627891
C           3.04764865038291   -1.84905825527466    2.22263163653031
O           2.83818415262481   -1.89533703419647    3.57019118977160
C           2.90643055491143   -0.60544727466570    4.11952164371319
O           2.75354962613064   -0.41671711887840    5.28996047367455
C           3.02998350929723   -3.04343495459933    1.47538042157008
C           3.21840257618810   -3.17026022180976    0.10430410000798
C           3.15518886840862   -4.50094842466213   -0.29046101514117
C           2.91850450954363   -5.38271451825987    0.78908503003239
S           2.76724874547748   -4.57787424849095    2.28223484364661
C           2.89587850866274   -6.70722079361784    0.29136739950776
C           3.12001103608525   -6.67200727984628   -1.09597047707930
C           3.27706649130025   -5.28468799900336   -1.51021581202216
C           3.48284690221630   -4.83499117666348   -2.77970420004972
C           3.57794861633765   -5.72415049213709   -3.87279185092139
N           3.65492015271749   -6.44705904223246   -4.75933662459263
C           3.60763970482147   -3.46819314950050   -3.11448145137829
N           3.70767070861401   -2.37158206059082   -3.43045948614429
C           3.13770922713098   -7.93958555206074   -1.67464659006670
C           2.92575697555384   -8.93770797022863   -0.73947430069143
S           2.69629115056247   -8.29926379197297    0.88078231981188
C           2.90099762070492  -10.33683307832773   -0.96594929011015
C           2.64046264234202  -11.33746095481033   -0.04665881474548
C           2.72471883314745  -12.60537326259165   -0.61992674714410
C           3.05668379411224  -12.56741771270491   -1.98561747076172
S           3.25349209379651  -10.97413119591023   -2.56615564934537
C           3.13747205839034  -13.89745635629940   -2.46859212253537
C           2.85113960575146  -14.77729429462077   -1.40972522766653
C           2.57755480561588  -13.99483775796510   -0.21435103056991
C           2.25251944909590  -14.46483441054119    1.02354193786806
C           2.13739578382174  -15.84535586199396    1.29212603762442
N           2.04685835613475  -16.96764089793357    1.50761733541245
C           2.01043059394453  -13.60105478426762    2.11293366969575
N           1.81220455669858  -12.89524563269719    2.99423669153920
C           2.92051332895540  -16.11794539959960   -1.78475750619146
C           3.26193085385131  -16.26444821600155   -3.11743746156294
S           3.49338823260140  -14.71799736533643   -3.92226896648996
C           3.44173407558846  -17.47257534396158   -3.83617986278535
C           3.82922270780726  -17.61535056922270   -5.15747612465955
C           3.92030363814640  -18.95445346078841   -5.53218781221751
C           3.59570395875776  -19.83632316138306   -4.48709658954307
S           3.18126563775902  -19.01755718250482   -3.04369033726940
C           3.72016317492021  -21.16158528841275   -4.96270759783780
C           4.12712956459016  -21.12652377631612   -6.31383440699158
C           4.26730053870878  -19.73382798939869   -6.71332182725843
C           4.64714965372486  -19.24153370120912   -7.92508260431201
C           4.97804719695385  -20.05197737310380   -9.03444766749885
N           5.25639241344369  -20.66845446500755   -9.95881414564721
C           4.73910927876741  -17.85153902474092   -8.15940318556400
N           4.81943966112241  -16.72390107163163   -8.34950373742153
C           4.27795022418980  -22.39309098218121   -6.86875067967657
C           3.98806811085600  -23.39226494807619   -5.94955072671067
S           3.52314176133778  -22.74743345414757   -4.37735881038289
C           4.03880407630997  -24.78500990015288   -6.17565785503068
C           4.37949843451295  -25.46260018049848   -7.33027918598139
C           4.28510794277955  -26.87514400029939   -7.07327652600702
C           3.86259483398713  -27.05051258556611   -5.68381670963774
O           3.64857087871406  -28.02729007533476   -5.01469262462363
N           3.73875389477279  -25.73337890513114   -5.22085974817132
C           4.62590311676349  -27.50186156966802   -8.22448904124057
O           4.92835250256405  -26.61422636488355   -9.19137730512970
C           4.79521552896078  -25.30581595056963   -8.69877200395747
O           5.01196696200737  -24.33943722041415   -9.37953463362482
H           3.42274961070767    2.46253148214659    3.20130746325276
H           3.79567369671104    2.41138992800701    0.72476812815947
H           3.39315721647509   -2.32143295140674   -0.53456461438579
H           3.29636318636648   -8.14460500672589   -2.71810444728473
H           2.40421414516720  -11.13540490459298    0.98269372542297
H           2.74031036686312  -16.95481903767286   -1.13398748475513
H           4.03320193744959  -16.77529134488224   -5.79665719487883
H           4.57965310564256  -22.61291127627694   -7.87893456388306
H           3.45604067022267  -25.51804834053637   -4.27645464887821
H           4.69248788338822  -28.54158201776073   -8.48559707216772
