122
 SCF done       -207.890695173953          0.000653123589
C          -8.28559348961873    6.70709455639475   -0.37923372669166
C          -7.01264781305978    7.23362713074372   -0.53082983243881
C          -5.94097763943021    6.43863750751669   -0.17685322171836
C          -6.13841594695482    5.13941795621334    0.29788729059383
C          -4.80547630473053    4.53163297189929    0.52910845020731
O          -4.52901071497350    3.42076491297301    0.91279663631355
N          -3.88722856527963    5.51729835942396    0.21364947612030
C          -4.48474376962380    6.69664479537961   -0.21400578052744
O          -3.89286809959624    7.69975381614462   -0.52249105142895
C          -2.45159958062122    5.34270634016243    0.30316513579878
C          -1.82193862794697    5.20383965125489   -1.07745883369285
C          -7.40167222863606    4.62251174339895    0.47039483550323
C          -8.49959671070335    5.42589756572657    0.13760805496738
C          -9.86937663790888    4.95174274158634    0.27570057379967
C         -10.33904197696708    4.20318231469233    1.28135821210184
C         -11.72832139935437    3.78750866316925    1.40672548311427
C         -12.72661001129403    4.57667131062856    0.81037306604970
C         -14.04544527117217    4.22266871562952    0.94598892457476
C         -14.41595898518817    3.10436694112150    1.70030522906471
C         -15.89442823957322    2.99746696112913    1.66907080689723
O         -16.61695665755542    2.18157817859744    2.18138077685764
N         -16.32055691573145    4.06170225608333    0.88615455102942
C         -15.28033051328180    4.85124513370591    0.41842971163039
O         -15.40746205940568    5.82448575400911   -0.28013624291736
C         -17.71484887297349    4.33724945373532    0.61150015454320
C         -18.33776035642624    5.18979654516662    1.71098794724384
C         -13.46309003216834    2.33488210325067    2.31897270467953
C         -12.10281186192238    2.65232659065075    2.15963047647621
C         -11.18076587093989    1.72963734378597    2.80505473025512
C          -9.95083359982288    1.36555871136715    2.42953229735057
C          -9.21157437292992    0.32323962082421    3.15001503679970
C          -9.88116897926790   -0.87737903284215    3.41636618856967
C          -9.21070374920593   -1.88750127940914    4.06597151181231
C          -7.87613368074224   -1.72252271709746    4.45053044769670
C          -7.42801285955318   -2.97317816153829    5.10730535419905
O          -6.35182005570544   -3.24141398243139    5.58101257936605
N          -8.52245627131727   -3.81947961082730    5.07098734117311
C          -9.63762469680061   -3.24823853541540    4.46806690866183
O         -10.70044163585091   -3.79517413053016    4.32362329210924
C          -8.52478802327253   -5.14809217992437    5.64582499391301
C          -9.00558894167005   -5.12277560862469    7.09230955056665
C          -7.20587492027952   -0.55040156853236    4.21032007111576
C          -7.87465429746568    0.50453101940268    3.56814645105241
C          -7.22469378303414    1.78499293120885    3.37707000420076
C          -6.03377518785785    2.14212343406333    3.88165766760358
C          -5.41177414943995    3.43788040119581    3.68138435253051
C          -6.20846453167897    4.57714340071632    3.50774938799219
C          -5.60106761098713    5.79632892542131    3.32391464090195
C          -4.20766040561864    5.91148533903633    3.35092628138974
C          -3.86210629699040    7.33604673282118    3.14187576955407
O          -2.77808897930834    7.85876324818322    3.09433506893753
N          -5.07721850216074    7.99688892531679    3.01423860783853
C          -6.16821575925412    7.14468029254476    3.08708965919423
O          -7.32300821018212    7.47476173508830    2.97065395963230
C          -5.17754649539164    9.43504785586884    2.86148841222432
C          -5.63880085048228    9.83584045211973    1.46704622921680
C          -3.40634052580609    4.81207944549279    3.54385922331344
C          -4.00072765211568    3.55114738089206    3.68858560680129
C          -3.16649890174121    2.36047804296894    3.74379932666432
C          -1.89390569478582    2.33806591084366    4.16183195408966
C          -1.01023968776661    1.18276447221727    4.10210647641827
C           0.31990505677806    1.43796248394911    3.73325343642157
C           1.18136245333321    0.38208592348475    3.56258321521576
C           0.75276432354917   -0.93212466300490    3.78030009209467
C           1.89778850794585   -1.83675407198743    3.52108400407224
O           1.95930612462519   -3.03825130223919    3.58552826501258
N           2.94688449426828   -1.00430000962555    3.15549738374437
C           2.60672135161687    0.34103785248462    3.15995782796888
O           3.35177071177052    1.24405649250081    2.87505605394168
C           4.27277265653916   -1.48948786039471    2.83765068033429
C           5.12391055505137   -1.63630644263601    4.09398314112744
C          -0.53160652814176   -1.19854921881639    4.18911463981942
C          -1.43386398412058   -0.13787189906421    4.35612111304618
C          -2.76270436242509   -0.42598845713527    4.89272346912915
C          -3.42380237898192   -1.56086224424305    4.69634184123332
H          -9.14207020582031    7.30753421070576   -0.64777083140481
H          -6.85929417604621    8.22647690712460   -0.92317241457352
H          -2.28336778351913    4.44092078119119    0.89679203484651
H          -2.03777169359033    6.21242047994661    0.82128835611902
H          -2.24103953341675    4.34738390407660   -1.60132222787356
H          -0.74970392413502    5.06293049747252   -0.97694814878081
H          -2.00292680355571    6.10181673838027   -1.66276498508399
H          -7.53317161649889    3.60961344751655    0.81652153218628
H         -10.53628475242248    5.27017065243805   -0.51439484739483
H          -9.67873146816109    3.91223834088335    2.08614626134441
H         -12.46925599715407    5.47327466127615    0.27011529405556
H         -18.23144854804586    3.37711259139042    0.53760034848385
H         -17.75884260896651    4.85888444131653   -0.34754557232428
H         -18.28524238035230    4.66925165028751    2.66440085941500
H         -19.38000984166830    5.38654807009892    1.47677811820272
H         -17.81233689419017    6.13843117734661    1.79500147519792
H         -13.75504560690647    1.47780451995630    2.90705441964561
H         -11.59731069798212    1.24204639966027    3.67933214729501
H          -9.48730632191521    1.77470699968542    1.54280809953720
H         -10.90124297566389   -1.01543994980503    3.09265709313515
H          -7.50209460828313   -5.52841208528719    5.58965329649346
H          -9.18699583247767   -5.76793629826328    5.03659209668483
H          -8.35181507645619   -4.49709666061682    7.69581046735460
H          -8.99923393756893   -6.12983861538585    7.49912487136029
H         -10.01884788367016   -4.73096608103618    7.14394896435807
H          -6.17601055922142   -0.45243748100776    4.51006507895351
H          -7.77149408779027    2.50185398155922    2.78305567211316
H          -5.46887856318564    1.44282427960845    4.47872391609360
H          -7.28470175210256    4.51035310158053    3.53413467277308
H          -4.18189243998118    9.83483527437881    3.06777651994024
H          -5.88451359978498    9.80410163758451    3.61076149023987
H          -4.95686839816783    9.44677896193617    0.71482810168064
H          -5.66137394750697   10.91942567964691    1.39198808622366
H          -6.63852115852113    9.44938178422755    1.28473090808366
H          -2.33383483851553    4.92309727543157    3.53627841788766
H          -3.60576157325236    1.45522264573084    3.35086367754598
H          -1.42476476799666    3.24718199525942    4.51606306249583
H           0.65379359567575    2.45007756273522    3.56116219054976
H           4.72548974250486   -0.76961187528897    2.15149617096760
H           4.15903567396772   -2.45671178293472    2.34163209806978
H           4.66258418070993   -2.34469325459991    4.77826425840375
H           5.22611856495562   -0.67542911505815    4.59340385355445
H           6.11250305839523   -1.99964668391291    3.82815086082347
H          -0.83455677456048   -2.21118573760451    4.40373252210689
H          -3.18772899546471    0.35306221618350    5.51442974654930
H          -3.04448761429049   -2.33539197091824    4.05086197787424
H          -4.37142909779430   -1.76982164254002    5.16240565424671
