96
 SCF done       -194.883546082677          0.000673296318
C           1.98747888046165    2.03534147210384   -1.23374148393741
C           2.17972375560780    0.89180998567291   -1.94779891605355
C           2.20719820064027   -0.21637228360851   -1.02520750318104
C           2.06953150054062    0.32553916053184    0.31780563185884
O           2.11364653069667   -0.15965689658151    1.42255048890701
N           1.90906924418070    1.70777676561328    0.08638816652580
C           2.43015116811042   -1.34641630051626   -1.76677735188427
O           2.57474102977213   -1.02116843583485   -3.08515986626854
C           2.41304136758272    0.35412896949389   -3.27137920735172
O           2.48640552884022    0.85524945429177   -4.35666316559346
C           2.54863871020977   -2.72117363895493   -1.38693420680296
C           3.25988795895119   -3.63941242316728   -2.14758960918762
C           3.44089963414109   -4.95463826666269   -1.73456588507212
C           2.92327555140990   -5.45444918587601   -0.54529473652737
C           2.14986386010399   -4.55543045063900    0.23933376344337
C           1.94917875130575   -3.19807189237128   -0.19534603097634
N           1.12852470234099   -2.52994835029791    0.60766920864894
S           0.70027680360136   -3.47936628632789    1.82096440421620
N           1.49569162989556   -4.80474878590404    1.37415575242005
C           3.12609173190104   -6.81630267936665   -0.14527226247914
C           2.67680879070041   -7.42742860307797    0.99043510558353
C           3.00641321839247   -8.79928324377536    1.07332188450235
C           2.68482482157196   -9.70638255065007    2.10472976233108
C           2.01437510773374   -9.29129471552356    3.31959390009286
C           1.06445733922690   -9.96927226855603    4.02994773339731
C           0.66663226713715   -9.28613692823124    5.19852096205663
C           1.30634438407075   -8.09829834846721    5.40541307823555
S           2.42730770186422   -7.79938543932099    4.12253942969062
C           1.14248901757131   -7.13521801683568    6.52331713679377
Cl         -0.53009584683276   -9.91386280224904    6.26542749569487
C           3.05606615816998  -11.03060571330731    1.89913236977251
C           3.77146791823574  -11.47491683567094    0.75667539769486
C           4.13476632148821  -10.55713158931991   -0.25098147531754
C           3.71530419361821   -9.24327118236040   -0.07147292464021
S           3.99889242746060   -7.93271851933435   -1.18003411678829
C           4.90987495521426  -10.94289820744708   -1.41260965851600
C           4.75922589034268  -10.51586938867787   -2.70092454898008
C           5.73122872493411  -11.05373574818138   -3.57136664199728
C           6.63590998060855  -11.87872343615733   -2.96916077550352
S           6.28072247158203  -12.01227507290025   -1.28031221157622
C           7.78616575874047  -12.59752951624622   -3.57277511279729
Cl          5.75816851919591  -10.68799198378110   -5.25387950499899
C           3.99749189207554  -12.86972757802135    0.78543188681837
C           3.50020978338056  -13.47841595335584    1.90521653362806
S           2.73494561857801  -12.34747285505913    2.99375340288543
C           3.51468919820952  -14.86816614918994    2.18415036266475
S           2.71840484692079  -15.52461206738004    3.63622949247204
C           3.16766253437094  -17.08338417781748    3.08585119694507
C           3.87616846454095  -16.99156027390988    1.88143909172078
N           4.05403241288196  -15.76472130598310    1.40521391787687
C           4.25933964887754  -18.34887547298430    1.38374384862562
C           3.66146900251180  -19.22420445589935    2.44592042139399
C           3.03737675135346  -18.44704067176278    3.42703333061922
S           2.31870783609730  -19.40014852529200    4.65581008226769
C           2.84565896913916  -20.86632874928296    3.84661056357058
C           3.55297743591178  -20.58696959145452    2.68618147497782
C           2.48774227520348  -22.11562795133491    4.41269314297232
C           2.77670451676184  -23.32903952479022    3.88420403771920
C           2.37275192381595  -24.56615263431788    4.44662755522964
C           2.62333915668181  -25.82671058305550    3.93157198378459
C           2.06739782345181  -26.83818156911011    4.71560519598573
C           1.38883111593081  -26.34664061382813    5.83819296486420
S           1.43379056220978  -24.64290596016793    5.93301470471483
C           0.85753471655510  -27.45061767727415    6.56338396038069
C           1.20211108748873  -28.63228857919765    5.89618824014955
C           1.97301463618225  -28.29414431155083    4.71540972119612
C           2.50043962485368  -29.15111010113213    3.79352732931122
C           3.23483928814226  -28.69662972307614    2.67893379834884
N           3.83075630113271  -28.33111891401245    1.76963346808502
C           2.34539799852126  -30.54953195743867    3.89106928142554
N           2.22986461238374  -31.68799573293767    3.96745742243984
C           0.70993035305741  -29.78036869183786    6.54724740499164
C           0.01623603549418  -29.45358212107893    7.67168081286423
S          -0.05890235837405  -27.74703634913454    7.97226830979327
H           1.90486650133991    3.05247150280833   -1.56798764011314
H           1.78702533280545    2.36779107721694    0.83888833657648
H           3.70441998985673   -3.30602598710062   -3.07252420729858
H           4.01845478156542   -5.61956136055251   -2.36020476858113
H           2.10565125583350   -6.89244603876847    1.72504751608180
H           0.62863212390737  -10.90134352289241    3.72270779715357
H           0.30296219475295   -7.43587419360280    7.14523682029002
H           0.96383710414941   -6.13133944465709    6.14118843644937
H           2.04153053567998   -7.10485112694139    7.13904891425207
H           3.96731182367886   -9.87256727208439   -3.03580104378739
H           7.76089888820269  -12.48531910881939   -4.65387746212997
H           7.75156476307357  -13.65668531771080   -3.32223423570785
H           8.72834722971444  -12.19520159111964   -3.20026120544702
H           4.48400401212589  -13.43054264046804    0.01052455770191
H           5.34255058316823  -18.46272439923118    1.31327902959589
H           3.83937006582911  -18.54998452965214    0.39667734389942
H           3.96107535341219  -21.35137250836410    2.05109401356138
H           1.92178853064528  -22.07108418796293    5.33494532481208
H           3.34082890231802  -23.40305544744522    2.96531888464964
H           3.18230346831839  -25.98396223364270    3.02705798823051
H           0.85677047108665  -30.78957716990030    6.20842754438923
H          -0.46807463670375  -30.11500349874588    8.36164863888892
