51
 SCF done       -118.676328145640          0.000501107127
N           5.03119995643231    0.96200088717261    5.43822838176521
C           5.92714743894717    0.36899014203223    5.03650634010492
C           7.02678713621702   -0.36175326484146    4.53981530815168
C           8.09613931607271   -0.67490785395728    5.34486907070134
C           9.18497181275333   -1.40301893907795    4.83569811379992
C           9.22140441497661   -1.82416673664384    3.53377568211103
C           8.14791506923443   -1.52699749040375    2.67081280511033
C           7.97986251256796   -1.85246594355829    1.31660382021473
C           8.83554996667442   -2.56623700350305    0.43814949411458
S          10.36133617087443   -3.26186974211929    0.90586569665987
C          10.67690654281669   -3.87607241002601   -0.69083873161057
C          11.86083128423074   -4.59130855786774   -1.00811339457267
S          12.21374319675927   -5.13970218501715   -2.61918505417594
C          13.72505037483876   -5.83674606999493   -2.12197895224286
C          14.59690272615780   -6.48689501516612   -3.03758827881468
S          16.10793636298900   -7.18742149819267   -2.54551689889331
C          16.48555711572444   -7.69171780065029   -4.16326503862789
C          17.68557028357442   -8.40182541608174   -4.49487424999386
S          18.18261271636887   -9.78200697133940   -3.57323998715371
C          19.47624592130943  -10.11237671405906   -4.62705560046791
C          19.56245023596956   -9.19858880637953   -5.65666060423376
C          20.50545738897510   -9.16084607972048   -6.71094241653941
C          20.45364327445655   -8.14681667413851   -7.62118711429281
C          19.50741460969455   -7.11038108205170   -7.50213874247805
C          18.57034998013868   -7.10911057738206   -6.49514118729606
C          17.73121608922869   -5.98675756926716   -6.33004442778781
N          17.09914018882665   -5.04227808805217   -6.17375469607792
C          18.54031354412708   -8.19324092782731   -5.57006526904725
C          15.46976469786185   -7.33541015082966   -5.02200660655172
F          15.46516972388884   -7.66306398737343   -6.31806296739115
C          14.41377237976463   -6.65722600943352   -4.39488939799449
F          13.32171320573081   -6.23298219436193   -5.03510432982158
C          13.92169956175771   -5.64444205193838   -0.76767953540433
F          15.00679148932901   -6.08548848979966   -0.12073117649045
C          12.88097079238168   -4.94652769031158   -0.14527264679402
F          12.86435490334606   -4.64756442688850    1.15999003910604
C           9.63222191314629   -3.54755148001026   -1.53160697957250
F           9.60398690470595   -3.89443106724137   -2.82171977066831
C           8.61184816664150   -2.82425181261041   -0.90490307398505
F           7.51225535396805   -2.41371660342809   -1.55104107868452
S           6.46776003547020   -1.23634092651436    0.72324211973570
C           6.05895495900299   -0.56307832842100    2.22721340666386
C           7.03118551620943   -0.78330494523229    3.17848182386908
H           8.09905925606879   -0.35812039433888    6.37711169770144
H          10.00874574257793   -1.63118306440266    5.49419242500815
H          10.06925290860190   -2.38115461090086    3.16954310538752
H          20.10934007354851  -10.95880466444601   -4.45036727179463
H          21.25557402087361   -9.93423262867053   -6.77093923032152
H          21.16270003370661   -8.10810172716073   -8.43382324510601
H          19.52978570090719   -6.28863835311735   -8.20241208735659
H           5.13305702955438   -0.03730600445931    2.35278071202152
