93
 SCF done       -197.967818582222          0.000968228626
C           2.54258203107162    1.90964174042066   -3.44762125442873
N           3.66321760004879    1.56654697093058   -2.61659101887857
C           4.73454484434348    2.39644548253190   -2.41261756310806
O           4.84569808114893    3.47900822451636   -2.94779472263105
C           5.69559753036916    1.66243202703721   -1.51955098644900
C           6.90253121353838    2.15334783307064   -1.10513145471095
C           8.02866436676683    1.30855497595563   -0.57723066575246
O           8.11958442327383    0.10240828755043   -0.49311784512570
N           9.05169737301501    2.16108313140208   -0.25230045778645
C          10.32051578996458    1.71906112135957    0.25620501243409
C           8.69833289768082    3.46976867493875   -0.50023881030030
C           9.42986427035602    4.60425010236675   -0.23548736969557
C           8.86771124121591    5.84629878849076   -0.54887104250322
C           9.60567413322402    7.07117963407614   -0.24600465388224
C          10.36013895963173    7.19271643039786    0.90140107757837
C          11.07284119328798    8.35534995991493    1.22416208398182
C          11.07565695431323    9.44783776545167    0.39381721460830
C          11.81496014747673   10.68704616481819    0.63391989420506
C          12.76511337131964   11.12485322796947   -0.29638372592420
C          13.21240212996036   10.31179501698129   -1.44148066284762
O          12.96251461115582    9.17638406878793   -1.70196356331699
S          14.31914670902038   11.31332947019148   -2.45425939121929
C          14.34510092571232   12.65529990319710   -1.26951181711497
O          15.08174617822259   13.59205435281928   -1.37685947556863
C          13.35892785947907   12.38179166136385   -0.20813014969364
C          13.04374672628997   13.28217346515152    0.81910489006028
C          13.44958116874460   14.68386671526938    0.76802904291257
C          13.07419192276566   15.49750921159860   -0.27461719899863
C          12.45257459365868   15.01680243315140   -1.50402158881301
C          11.23241837887030   14.31947681653407   -1.50107631667284
C          10.32823875838633   14.21748878505697   -0.34507798492967
O          10.45213567741370   14.69413579463496    0.74636419733283
S           8.90195951685356   13.22208241293818   -0.79620231188365
C           9.47071051883649   12.97613954234609   -2.46841826155022
O           8.87111652094199   12.33057451809845   -3.28437628250995
C          10.74791772709711   13.67943699605551   -2.64693282344150
C          11.44604961144914   13.70460174693711   -3.84318386804252
C          12.62837151987720   14.42908641939377   -3.86525878808070
C          13.48921100104340   14.50714275567685   -5.06748003062156
O          13.26874490841690   14.03348111441152   -6.14009995428013
S          14.95826781517350   15.43457307130423   -4.65392926281689
C          14.42428032333927   15.75788985203190   -2.96461236385292
O          15.06009857255040   16.43365221801610   -2.21869930338138
C          13.12030355136704   15.08936829557018   -2.73866813424092
S          13.47737903952319   17.16062740443325   -0.01229874784560
C          14.24637834140482   16.77143748743496    1.49031068085523
C          14.88908251508175   17.65729857049129    2.34723994198746
C          15.47486785910769   17.16105629229821    3.48834201756050
C          15.42872038327081   15.78402373448312    3.77147404628597
C          16.05012384032885   15.29474787262641    4.94460140910863
N          16.55698401529576   14.89756468615348    5.89265241711340
C          14.78519195207958   14.89835218000941    2.92251883865140
C          14.16669886848515   15.39494533099703    1.77716743006749
C          12.15449787026210   12.81252210978717    1.79953243428096
C          11.65516184538255   13.63518466688464    2.92925981510531
O          12.00721312231026   14.71636620488790    3.28290565354060
S          10.36702264202622   12.72199721452050    3.78388296776084
C          10.50433323056816   11.29729428509472    2.71355320760664
O           9.81897734630384   10.32657363752958    2.83124033783651
C          11.54968468487750   11.55928112141902    1.69696792736342
C          10.32829134220561    9.37324793526222   -0.80653393210921
N          10.23751290666693   10.35209529342020   -1.70463907054187
Se          9.23747245933429    9.80394158100537   -3.03170431517297
N           8.94954109661695    8.25474350457024   -2.29203173533244
C           9.58108780323385    8.18657191366346   -1.12739218062182
C           7.59131952667701    5.89938853232811   -1.11563468677203
C           6.85656088028346    4.75554584997349   -1.36716740767900
C           7.40133572015236    3.51140418751898   -1.06721761115372
C           5.06382552856603    0.38581573029215   -1.25591996256303
C           5.38427001448241   -0.69927450550542   -0.44792289217696
C           4.49109114836985   -1.75398843289596   -0.34905743170123
C           3.28543610313543   -1.74675461809067   -1.03565329438484
C           2.92851590151058   -0.66758434460499   -1.83185776846096
C           3.81723410644545    0.38411557528654   -1.92504909263811
H           2.74541405760269    2.88811636912229   -3.88201377127579
H           1.62506839283423    1.95708662071585   -2.85679362846301
H           2.42002519054201    1.17546974785693   -4.24610110879438
H          10.29478229829051    0.63054025419609    0.29626245845839
H          10.49302547072848    2.11571057496976    1.25890545087772
H          11.12955744588500    2.03911827745617   -0.40298879538240
H          10.42317973373754    4.54080754516876    0.17980160835249
H          10.38909142013664    6.37035489454123    1.59969610755848
H          11.64579903815614    8.38007831968232    2.13848313539238
H          11.08880592493418   13.18602227834559   -4.71928904841455
H          14.93124904937663   18.70881367191534    2.11193657219239
H          15.98326220739341   17.82133818583520    4.17446465266211
H          14.76009671929139   13.84257695167738    3.14875452291967
H           7.16592828459345    6.86136488059422   -1.34945310432747
H           5.87921653059295    4.83529247786065   -1.80970698732997
H           6.32012243196657   -0.73709670918806    0.08060596128283
H           4.74247417053045   -2.59959990242794    0.27237492506610
H           2.61158896182241   -2.58556708512815   -0.94638414292806
H           1.98463692965395   -0.65019553516086   -2.35369611248286
