86
 SCF done       -168.016599201176          0.000580715138
C          -0.58365800544324    0.99460888844058    2.65977347666777
S          -1.83881582448679    0.17576909992360    1.85150705784642
C          -1.08948468566253   -1.37266010987600    2.07437658855285
C           0.10904173970411   -1.24254536418736    2.78781900741996
C           0.38931445047621    0.13017455281333    3.10586460920705
C           1.57756679955401    0.45664750053974    3.82467108224246
C           1.85934578049386    1.80568981674440    4.12219568012697
N           2.08705598487415    2.90408272276540    4.36308094179500
C           2.42318059575869   -0.55099443718964    4.22171022772635
C           2.11531651969952   -1.89447495691521    3.94437609519713
C           0.98935658302289   -2.24296523977198    3.25029284682383
C          -1.70731460386081   -2.53553313544824    1.53872180419371
C          -1.13656786421777   -3.75270341958793    1.21950379096508
C          -2.07044880569889   -4.65482016223538    0.70558565974825
C          -3.36529199768663   -4.11629749437553    0.61511369223894
S          -3.43315744335435   -2.50396111482222    1.17256653398338
C          -4.22659679558168   -5.10321324762788    0.07579334513555
C          -3.47780814298791   -6.26692300287202   -0.16960646411886
C          -2.09662858383202   -6.02180634931333    0.21929527757812
C          -1.05117278807876   -6.89734794339851    0.15405750776162
C           0.24253702601418   -6.54649921977886    0.59096692107705
N           1.29137754614742   -6.26145750629496    0.95753591135976
C          -1.19801331978653   -8.20782982108622   -0.34483271958631
N          -1.31327991674673   -9.27362699251461   -0.75262204062722
C          -4.24165752583450   -7.30742445053533   -0.69241464765692
C          -5.56955588364702   -6.95001442562981   -0.85489272995182
S          -5.87086285521049   -5.28896441437387   -0.34622343050973
C          -6.63090401998143   -7.75572145057706   -1.35568324438328
C          -7.90716746285272   -7.27806479156245   -1.53567424770144
C          -8.97948094950084   -8.02512114217625   -2.01554304045767
C          -8.81954931659459   -9.43814544107082   -2.36840574321493
C          -7.65450015866889  -10.11481715910229   -2.27760754746101
S          -6.18559447520834   -9.41950073936938   -1.72765580199368
C         -10.10502495438470   -9.86101883445912   -2.80373776866663
C         -11.00921720037193   -8.79755918897191   -2.74093119119682
C         -12.30008500504903   -9.19243948099877   -3.16143430769671
C         -12.33613127237479  -10.50170019718803   -3.52303899929990
S         -10.81798329495660  -11.31597664229565   -3.37209277090981
C         -10.31436758578611   -7.63126491046903   -2.25153271123817
C         -10.79898305735271   -6.32286666653949   -2.04630438495651
C         -12.05011724101330   -5.86456488210337   -2.32408630438023
C         -12.45999689733912   -4.52648527709713   -2.12279444381391
C         -11.74249371938234   -3.45574728661761   -1.60402906796142
C         -12.48539632445665   -2.28148191655565   -1.58707265214322
C         -13.78709402815581   -2.43985645581921   -2.09329699428639
S         -14.08974787947129   -4.04829259590385   -2.58667016461910
C         -14.44129085401254   -1.18423966109519   -2.04902597053029
C         -13.55777358016774   -0.23634669319521   -1.50531798685066
C         -12.30233456350205   -0.88780787372986   -1.19798714678474
C         -11.17790130415729   -0.31937529640687   -0.67341273063735
C         -10.00394039761500   -1.06347131801472   -0.43880321814798
N          -9.04999581810671   -1.66997521574506   -0.24162846197044
C         -11.12213006873398    1.04486132311859   -0.31952088046814
N         -11.07163322679313    2.14781442430757   -0.00927115587087
C         -14.10795273788153    1.04676725722598   -1.43915714088578
C         -15.38663989963098    1.08769470246540   -1.94574758466181
S         -15.94502971079222   -0.49724353176341   -2.47469664742662
C         -16.22253075837150    2.24014532700777   -2.05980345066349
S         -17.90160929135722    2.18211382723731   -1.63269784073601
C         -18.10164844333447    3.85552845222071   -1.87948824622172
C         -16.93649270933302    4.46615410050434   -2.29053376981585
C         -15.85219173669596    3.53139039894922   -2.42129531464193
C         -14.61751346250435    3.99723179116885   -2.96102865990273
C         -13.57448717305998    3.11915090991464   -3.32712970636360
N         -12.72303363963092    2.44710972944525   -3.70243006675009
C         -14.46646761507734    5.33725907973855   -3.23874442010552
C         -15.51366907572504    6.25403032323758   -3.02560475942736
C         -16.73386144275316    5.83558441296611   -2.58462933848121
H          -0.61402344399090    2.06046031113150    2.76903874170107
H           3.32447394719813   -0.30963711168900    4.76536238134385
H           2.78627947366293   -2.66311113799389    4.29584975526048
H           0.76624549992573   -3.28267393663714    3.07757125222011
H          -0.08737922084478   -3.95889037752491    1.31034653368051
H          -3.86270046740296   -8.28025820628755   -0.94917055471948
H          -8.07061453170702   -6.23923587724197   -1.28011321325529
H          -7.56137166352422  -11.15398259074596   -2.55083402112815
H         -13.16979903713174   -8.56306115368258   -3.19851294918208
H         -13.18043280801392  -11.05932887907016   -3.87874326692967
H         -10.08359485342952   -5.62025766818700   -1.64264187152154
H         -12.78969667004472   -6.52970026228636   -2.74109265858068
H         -10.72857291374756   -3.53626187778622   -1.25959578852486
H         -13.61311901119839    1.90316750595805   -1.01976597538176
H         -19.05669655300292    4.31098909532781   -1.71090778236078
H         -13.53011949406232    5.68699057149176   -3.64769794449979
H         -15.34191258323704    7.29604786179020   -3.24795857313027
H         -17.55489130121516    6.52482254952768   -2.45996420654834
