74
 SCF done       -147.942352968728          0.000653837052
C          -1.45252569148288   -7.34657259665921    0.50911016708843
S          -2.45547908494505   -6.26322376025431   -0.38871014621224
C          -1.12473704953788   -5.17535142842592   -0.62284437558715
O          -1.25928987307658   -4.02875117610279   -1.30966592755770
C           0.03142832504903   -5.63776080428496   -0.03160936513695
C          -0.18747453534723   -6.89232797397824    0.61385855675210
C           1.29337320707591   -4.95476938100031   -0.05912294953187
C           1.59664691070006   -3.74476795051913   -0.64058334279182
C           2.94234682963723   -3.40014469176563   -0.46428462923822
C           3.66263388808741   -4.36199759326891    0.25891084704707
S           2.68723966726156   -5.68528549031873    0.72197050635498
C           5.00658296058591   -3.92697372628321    0.37885766591392
C           5.13735151197582   -2.68965190024583   -0.26961927021629
C           3.83999506333990   -2.31573429711281   -0.81843510750102
C           3.53812689659705   -1.18157444223072   -1.51469386480409
C           2.24184995677968   -0.91607551993874   -2.00290250518799
N           1.19184080588936   -0.68418281991210   -2.40212657111252
C           4.50540276657419   -0.19418021364585   -1.79419876821738
N           5.28883831393613    0.61177540069902   -2.02323051690629
C           6.43335217870302   -2.17826941641162   -0.21378486069938
C           7.29693917440734   -3.01378598076694    0.47143588342339
S           6.47838738021471   -4.46109053994708    1.06111456585165
C           8.68424945231036   -2.82176967556813    0.72903967384142
C           9.43882057748620   -3.73761331423476    1.42176084735208
C          10.79656380071669   -3.61252276223465    1.70939249258015
C          11.56772284155969   -2.48570781512411    1.16236273812364
C          11.02884583743876   -1.46141331789818    0.46738000448384
S           9.35806521635260   -1.32135264037593    0.10118489147175
C          12.91911077078053   -2.73867425718269    1.52486916546418
C          12.99296837116616   -3.92485901583408    2.25329746508684
C          14.31545990092243   -4.22750581547776    2.64585354903988
C          15.19179142367037   -3.28456590900314    2.21152958396105
S          14.45520303576569   -1.99563725249772    1.31885900691873
C          11.66862362909506   -4.47292287162875    2.40562253375224
C          11.41252001729375   -5.64510633190464    3.15630512047981
C          10.21068380823668   -6.06276546336369    3.63688953046599
C          10.00595043938575   -7.25205542951437    4.37565249730890
C          10.90920605363957   -8.23444058177816    4.75612522524555
C          10.30220176664934   -9.25692191118575    5.47955746958876
C           8.92097023785390   -9.06736805430745    5.65579060712734
S           8.37442319103588   -7.62047104248525    4.93044271598590
C           8.40686693187889  -10.16015298498075    6.39508753435619
C           9.45947270718814  -11.04166038639391    6.68932219925881
C          10.68468656161443  -10.50542207278325    6.12876844422165
C          11.93596658204758  -11.04684282348825    6.19655744574183
C          13.05603336651306  -10.41962805608348    5.61417913468864
N          13.96981553210229   -9.91232852732661    5.14101857048701
C          12.19373027616187  -12.26588629369655    6.85651401841542
N          12.41159920818102  -13.25649569462155    7.39208288156649
C           9.04452617104786  -12.15969710255005    7.42111408686761
C           7.69195498706045  -12.13499779883847    7.68340235134174
S           6.91004086824952  -10.70526561925788    7.01718667827272
C           6.92082357752713  -13.09434651419929    8.39374992534212
S           7.67849562223099  -14.52605695482397    9.05358477828784
C           6.15256046751345  -15.07507316037160    9.68497966039843
O           6.03678830392411  -16.22666327999576   10.36609153480499
C           5.14004392095099  -14.20615826309503    9.40008792517399
C           5.57821824908427  -13.08811510910730    8.67017355618175
H          -1.87915293091102   -8.24899683916760    0.89682157513242
H          -2.16074393983379   -3.91688383315531   -1.63408760016948
H           0.59267415353366   -7.41878182459166    1.13396348587078
H           0.86998929652546   -3.15263292009855   -1.16351851973013
H           6.74640285378785   -1.24569673215186   -0.64760981518866
H           8.92444370006626   -4.63601566187856    1.73169713459186
H          11.61941493766879   -0.63982783065739    0.09382820192720
H          14.60992096589771   -5.09137447521138    3.21362997137335
H          16.25364071756760   -3.25662596761447    2.35956406093445
H          12.28986818004472   -6.23122787622739    3.39618633790368
H           9.32965408397324   -5.45544194358776    3.49490903535817
H          11.95493109620473   -8.19696220530615    4.51412071352450
H           9.68554584667718  -12.95746270232249    7.75130051744576
H           6.88806836156654  -16.67283485177857   10.44344675409926
H           4.12530365258804  -14.37351572026850    9.70750604605407
H           4.92726571744300  -12.29318821052988    8.35215026547167
