72
 SCF done       -151.692864239515          0.000524869463
C          -1.95179324008125   -5.03135475118002    4.83381644356054
S          -2.97407764864081   -3.78192775261024    4.21741299654729
C          -1.62313005337529   -3.01155854390520    3.44986962550707
O          -1.76192374816266   -1.88079867927241    2.73894995273705
C          -0.44584312889557   -3.69615851188480    3.66626624176555
C          -0.66611444734807   -4.85723208168329    4.46764334186446
C           0.83634559065477   -3.29741161194639    3.16058420610801
C           1.14673511037900   -2.19163375460404    2.40018674987891
C           2.51263007073689   -2.12776443247715    2.10307145835433
C           3.24101610968868   -3.19700356924673    2.64205122155935
S           2.24810685161864   -4.27938851219301    3.51283854244197
C           4.60903489308903   -3.03449558951852    2.29819645213896
C           4.74327952442122   -1.85880151716116    1.54315784393507
C           3.42860683245753   -1.25309393123109    1.38913317222558
C           3.12413298209923   -0.10769665502472    0.71409848787989
C           1.80797101732986    0.39245400446243    0.62638605836043
N           0.74308192268734    0.81058991910892    0.54706380280305
C           4.10954421054016    0.65620126466601    0.05411069471153
N           4.90849140094241    1.27807638884380   -0.48470385796506
C           6.06259985240237   -1.60052009979354    1.16892044044238
C           6.93083320943113   -2.57146536186925    1.62996767239704
S           6.10094404771119   -3.82845927828789    2.54064005833177
C           8.33717794884154   -2.62988822908795    1.46057542142761
C           9.19931499786226   -3.62321491634658    1.88577628830876
C          10.52601316335092   -3.33621633313185    1.56231418178722
C          10.67314071168742   -2.11289951850543    0.88848952169183
S           9.17965484335866   -1.31952089770608    0.64400725893725
C          12.05018866881327   -1.90544804608188    0.62243665844596
C          12.77373113465069   -2.99980059936381    1.12413490635549
C          11.84009602372141   -3.93756849483073    1.72755153320413
C          12.13460424727395   -5.12899408333724    2.32281299380490
C          11.13721482892824   -5.95786771613021    2.87767704944830
N          10.32915139563941   -6.63500115373180    3.32887282217833
C          13.45627032304581   -5.61162918206151    2.42242900853956
N          14.52916271835983   -6.00775975459587    2.50561141135026
C          14.14932617158429   -2.88087073133703    0.92292487010289
C          14.47745442021787   -1.70374963712178    0.27689492543906
S          13.06054493348219   -0.72973345551611   -0.09551779774658
C          15.76974188289995   -1.23941730315734   -0.07520746067004
C          16.10229286747546   -0.04369199871620   -0.68293392369020
C          17.47990866508166    0.08478538475683   -0.86414912563132
C          18.20016532037690   -1.02448021319701   -0.39237238348107
S          17.18540188662179   -2.22469552300512    0.27551470648152
C          19.58217356568630   -0.79573846169454   -0.61811104781274
C          19.73545737317230    0.45667477410866   -1.22970496923880
C          18.42064510045076    1.05383104305664   -1.40480172854581
C          18.13099572490646    2.26788678342545   -1.95445810420811
C          16.80766104648371    2.74366869903206   -2.06706036751761
N          15.73314621780653    3.13337833418691   -2.15985244574554
C          19.13429418737151    3.13027825348333   -2.44397786344409
N          19.94554875550018    3.83483166425414   -2.84469518739660
C          21.07048987232686    0.77558755597204   -1.49183745426925
C          21.93039611759156   -0.22443138908608   -1.08475064770209
S          21.07932061389727   -1.58311724820121   -0.36545747968812
C          23.34690002006075   -0.24829704495116   -1.18940881927396
S          24.20468744823694    1.10216986268765   -1.89675576155818
C          25.72808063071697    0.30164147192454   -1.64325864199882
O          26.89410818694902    0.85918235717103   -2.00104452872379
C          25.57132262227581   -0.92027748273177   -1.05406745717622
C          24.22509438532516   -1.22705632296061   -0.79921535692661
H          -2.38380429629939   -5.81021773596538    5.42827902384837
H          -2.67997721031015   -1.58501543358381    2.72355183872271
H           0.12838207094156   -5.52502892420004    4.74880600506599
H           0.41070362762202   -1.47581475583671    2.08717363960452
H           6.38982571898257   -0.75411824474150    0.59199509849869
H           8.86300846806622   -4.50319935928289    2.40419729635681
H          14.88620940439380   -3.60160514456268    1.22920612628911
H          15.36770023539973    0.68719559494526   -0.97015588927653
H          21.41340467395416    1.68397094802032   -1.95382221797630
H          26.76096732487847    1.72630130269542   -2.40170774573785
H          26.39824726676474   -1.56284599511626   -0.81871729520651
H          23.90063233395015   -2.14402964274512   -0.34029249152546
