135
 SCF done       -254.214447305050          0.000876962755
C          13.97513951771597   -0.14464217680788    0.73717095386135
S          15.09671329815063   -1.02377833496302   -0.24016742573222
C          13.79727187948031   -1.79201576598579   -1.09623834091394
O          14.03276507963462   -2.67646323303777   -2.08295792372525
C          12.56512433272709   -1.38035154930700   -0.64172075026251
C          12.69764503983306   -0.43025783099767    0.41530803056759
C          11.30242605271075   -1.84776103703210   -1.14639491773090
C          11.06763420288084   -2.74203772903822   -2.14442637881809
C           9.69115570615084   -2.99581356172016   -2.37312246912123
C           9.11360312543584   -3.83745234165116   -3.34293424367888
C           9.89959160564161   -4.66681793218584   -4.23430209350854
C           9.64593674920742   -4.96145558629843   -5.54307590243561
C          10.57373160175327   -5.87570611224043   -6.08741669415081
C          11.53132068393974   -6.29806647576830   -5.21306044736712
S          11.29838800827718   -5.54269795028959   -3.67256602433187
C          12.64309178802631   -7.25633007447485   -5.43886104232529
Cl         10.48569293617620   -6.40717270061704   -7.72335813458413
C           7.72305307346958   -3.87244428163314   -3.38515287900779
C           6.89573742101897   -3.12981159763435   -2.50855299927389
C           7.47230466596457   -2.27386683620927   -1.54931244461906
C           8.86280305959062   -2.24117391282748   -1.50674882929684
S           9.81607012703656   -1.25883042965911   -0.43178877006451
C           6.67273878233414   -1.46013760838632   -0.65666810953406
C           6.91603430541142   -1.15563985313951    0.65190532437227
C           5.94729924854340   -0.28756304139231    1.20033833106485
C           4.96757126572558    0.09177631025054    0.33052065155527
S           5.23389561618365   -0.64509214038560   -1.21275912780767
C           3.80321550231772    0.98289465813009    0.56400319826615
Cl          6.01296927500983    0.24048716412070    2.83863906930116
C           5.52543796410811   -3.44026153326103   -2.68982534008814
C           5.29574454665235   -4.35960623710112   -3.66875242442350
S           6.77677987320152   -4.88681074786241   -4.44078028571910
C           4.04801220096038   -4.93470694500372   -4.04515803114213
C           3.80851663819036   -5.83874995963940   -5.03622150035885
C           2.46730709982147   -6.29262005654252   -5.08061853774620
C           1.90744318094525   -7.26562463554337   -5.93094830957532
C           2.70763987451252   -7.94281340780243   -6.93295559138587
C           3.96935514343622   -8.44800491776254   -6.81077588466263
C           4.43689825102251   -9.03720038150990   -8.00613517766161
C           3.55301189363269   -8.98808686426189   -9.04402249950550
S           2.09441876139842   -8.20110913051641   -8.54369602946367
C           3.71103289168930   -9.49847929454490  -10.42903545397885
Cl          6.00023068265339   -9.75174401523319   -8.12396658174466
C           0.56558142941294   -7.56499512306327   -5.73264560151020
C          -0.23106905107099   -6.96072377176269   -4.72789239013106
C           0.31959368580665   -5.96385274969812   -3.89759451980903
C           1.66309225236054   -5.66193845661974   -4.10031618092284
S           2.59860602787365   -4.54683528585423   -3.14123279804101
C          -0.43645832397101   -5.28887054399156   -2.86165313667408
C          -0.34978773975547   -3.97457650159760   -2.50060047842907
C          -1.18757154102085   -3.64851595738792   -1.41256376603451
C          -1.91235993625723   -4.69412816775656   -0.92189264541340
S          -1.56291529043741   -6.12774024074971   -1.82792036131072
C          -2.88101522099618   -4.71325358054866    0.20311162958646
Cl         -1.27435387898781   -2.05328828038115   -0.76982461295753
C          -1.53536744476047   -7.50817289421003   -4.69656957637456
C          -1.73481594608634   -8.50552694215304   -5.60722091765391
S          -0.32121050676509   -8.78832872054048   -6.60091451390691
C          -2.88499608969944   -9.32880187613498   -5.75094688313952
C          -3.12700060386148  -10.29180519888506   -6.70670701796175
C          -4.32048013040477  -10.97980591454030   -6.46731139028157
C          -4.98268779028150  -10.53424915359905   -5.31234532581031
S          -4.15916317806946   -9.25525742892729   -4.53889442514671
C          -6.13564337743860  -11.33543291855038   -5.11251561488182
C          -6.20775185144068  -12.28363063052995   -6.14243302985962
C          -5.07737157537418  -12.07964063050649   -7.03985265182018
C          -4.78897699237669  -12.78033405874786   -8.17392589104501
C          -3.65925584735638  -12.49351906843213   -8.96869725425911
N          -2.74097252778611  -12.27102120206677   -9.61854268516362
C          -5.60119289599205  -13.83896358520535   -8.63137802192549
N          -6.25976574042564  -14.69541971497862   -9.01605428743441
C          -7.28142122431582  -13.16458708978131   -5.99825922575766
C          -8.01941355701389  -12.89970832675313   -4.85974646064654
S          -7.38977392905252  -11.52328669359264   -3.96541923093741
C          -9.13109942119425  -13.61816758466326   -4.35118345940028
C          -9.80044894943054  -13.40887509759551   -3.16148829701750
C         -10.81677172382390  -14.33423500480918   -2.91923621808387
C         -10.91846512187953  -15.26131880503648   -3.95820289924848
S          -9.77950233460724  -14.99348013417531   -5.21687753784967
C         -11.91071968373285  -16.26527681745092   -3.79160859084553
C         -12.64145334410460  -16.20691003697154   -2.60722353860854
Si        -12.05753488977514  -14.75651442834813   -1.58126249544853
C         -11.21288219525454  -15.22258841166430    0.01572670102583
C          -9.84942793327305  -15.52607215421957    0.06157148272131
C          -9.22775663597995  -15.86374817717862    1.24894394292843
C          -9.95659322230318  -15.90848494667441    2.42549307977370
C         -11.30993766290842  -15.61458261764460    2.40509069202079
C         -11.92708602797987  -15.27707196943151    1.21555904949750
C         -13.37918678116819  -13.46761209042292   -1.31900505388183
C         -14.55866379100117  -13.46271528674590   -2.06829308487453
C         -15.53614411100148  -12.50730456184396   -1.86268846949365
C         -15.35767255282249  -11.52793945905958   -0.90009045171453
C         -14.19549633580266  -11.51043920911769   -0.14677782612012
C         -13.22117474118583  -12.46784875719627   -0.35540122665397
C         -13.58935429092964  -17.24680161082811   -2.54787184730664
C         -13.56758278629240  -18.05037588161167   -3.64686091183196
S         -12.38397554515844  -17.57270693571255   -4.80534061237434
H          14.35094241350409    0.52442393474363    1.48400966245514
H          14.98020754843822   -2.81514890453338   -2.19860142051402
H          11.84604994231231    0.00903872962738    0.90291571504970
H          11.86132919419920   -3.19620557249617   -2.70474700961155
H           8.85136862072276   -4.52350166982875   -6.11781808464050
H          12.67834118211040   -7.53423242192460   -6.48933886169478
H          12.50017049623143   -8.15715740480837   -4.84187177823802
H          13.59639555765072   -6.81317572704670   -5.15433938392380
H           7.73094004973398   -1.55747221051674    1.22431145856457
H           3.81503640623971    1.33941687400937    1.59096079285310
H           2.87024139861482    0.44910054168403    0.38490594958409
H           3.83334532176810    1.83931019368559   -0.10900348687302
H           4.72821257264342   -3.02443645957494   -2.10155321814237
H           4.57526514384595   -6.16423617614912   -5.71482778337765
H           4.53511867373777   -8.44658884259750   -5.89757980866307
H           4.67027635361677  -10.00050793523004  -10.52765903991418
H           3.66500024958152   -8.68035126855099  -11.14745533347307
H           2.91453268383214  -10.20118517769595  -10.67030194531285
H           0.25773463109514   -3.24839273840250   -3.00739844202523
H          -3.00457077782688   -3.70702962929255    0.59585100450919
H          -2.52800442607288   -5.36341142753788    1.00341364032120
H          -3.84867691782801   -5.08675475846171   -0.12979874795500
H          -2.30607001237995   -7.19097691986440   -4.01836745920983
H          -2.45287815462198  -10.47892124343581   -7.52323687087566
H          -7.51886115532412  -13.97180733213001   -6.66758609220524
H          -9.54153553146661  -12.60872055828215   -2.48974464037999
H          -9.27250289920769  -15.49014176127129   -0.85167564088625
H          -8.17149237686713  -16.09114411490824    1.25847428200854
H          -9.47196255183377  -16.16995196353706    3.35480244773446
H         -11.88395011328312  -15.64717926988941    3.31997436741457
H         -12.98258350617331  -15.04399794852232    1.20892777080111
H         -14.70661006627732  -14.22609760462809   -2.81896489024206
H         -16.44096269691767  -12.52628841588227   -2.45291816389697
H         -16.12140723016382  -10.78172830434174   -0.73666292720875
H         -14.05057463327418  -10.74893806418868    0.60603861144997
H         -12.31918413390885  -12.45056017485575    0.24007181051217
H         -14.26247345773816  -17.39396884241939   -1.72193207988645
H         -14.17873187338701  -18.90650865750695   -3.85573552894717
