100
 SCF done       -192.538744082578          0.000557697642
C           3.20076656196506    1.73520431925152    6.09412323521812
C           2.69228387056678    2.10523348127990    4.89999204162149
C           1.85183284628575    3.26879711984314    5.09845071337276
C           1.92260706094573    3.53896477370797    6.53382117617746
C           2.71947612562287    2.63705643502715    7.13240681701797
F           1.27279223645654    4.55104853807600    7.12879191023521
C           1.14293996935640    3.97277051539647    4.16381774054054
C           0.30948411575709    5.11529757555389    4.36031227258449
C          -0.22097436185301    5.50951172290182    3.14877951274084
C           0.28263538103006    4.59737822669762    2.11392469886653
C           1.07642159308221    3.70465639080655    2.72070233994944
F           1.73058610649540    2.70092673116466    2.12740150564446
C          -1.10125044557016    6.59413333528274    2.95701891837384
C          -1.63091113389868    6.97478497559146    1.75606918056905
C          -2.52835110729932    8.04400355070383    1.57258892024235
C          -3.08352474789615    8.42847051048201    0.36167320132164
C          -3.95490667033368    9.52498205042234    0.57210086486756
C          -3.88903663798721    9.79284407830825    2.01225957367649
C          -3.05438341643298    8.93191130074651    2.61299167682467
F          -4.57935552046558   10.77124502212685    2.61327978140697
C          -4.72349240218761   10.20654328286519   -0.35262872946024
C          -5.61242261800494   11.28487699346333   -0.12803319771836
C          -6.19057056567036   11.65742500670772   -1.33167112251773
C          -5.64991414144971   10.78926308378017   -2.38060791391522
C          -4.79159595810024    9.94201808848102   -1.79443591236710
F          -4.08163875254443    8.98330739290679   -2.40096732177387
C          -7.14059670517041   12.66736440645328   -1.58422405911563
C          -7.66697206649980   13.48318675585914   -0.62275256673173
C          -8.62747251251044   14.48757124782797   -0.84421771818754
C          -9.25018329837714   14.88218320795755   -2.02668281988641
C         -10.15637019613280   15.91224512378127   -1.82616593511541
C         -10.23926528270249   16.32394472431724   -0.47493521757470
S          -9.19246645786165   15.43155546013121    0.53469657466394
C         -11.18308645810586   17.36230607950854   -0.37654754589975
C         -11.71020145895770   17.62110235558471   -1.66397121237776
C         -11.07906997719466   16.71669545060320   -2.61224152323852
C         -11.30469012078118   16.63604961994938   -3.95498464929479
C         -12.23149353204982   17.47030437165290   -4.61534090789719
N         -12.98133144055778   18.14595290311892   -5.15873830347815
C         -10.62490770139365   15.70974351700176   -4.77348196502279
N         -10.07376344241266   14.95324769842778   -5.43595948455666
C         -12.65694797439243   18.63438891730492   -1.66807289799244
C         -12.86872898705031   19.16295344672872   -0.39710973382594
S         -11.86390726535794   18.37497518572578    0.81615426495595
C         -13.74877586882850   20.19644070901981   -0.02201599092703
C         -14.59927632742240   20.92058207728793   -0.84003519618293
C         -15.29915349684065   21.86595662222394   -0.05022391595750
C         -14.81453846010962   21.66458216214144    1.31800697190952
C         -13.89978327277936   20.68267964935723    1.34749992290212
F         -15.24328957432320   22.37456375853333    2.36727673469296
C         -16.23942149831037   22.79596373129120   -0.45331174620286
C         -16.92991119621136   23.74688155150765    0.33372181380113
C         -17.77954743906490   24.48562992840199   -0.47768758520914
C         -17.63658387583737   23.99078439787896   -1.85013000609038
C         -16.73083590544000   23.00213190240297   -1.82068471150321
F         -16.31053531811757   22.28363108372774   -2.86783660001648
C         -18.61741935969702   25.52518492696249   -0.03796457503261
C         -19.45731460333405   26.25335634229165   -0.83615178445335
C         -20.28859702755699   27.29801670466528   -0.38982740519347
C         -21.14513604517910   28.03753284378450   -1.18701676427117
C         -21.81571580258805   29.00464987041596   -0.38828924212557
C         -21.29864695464866   28.79757297825939    0.96876455525496
C         -20.40325831977925   27.79954404059435    0.98334952645862
F         -21.68853423288586   29.52204359553030    2.02384757765274
C         -22.74720120918353   29.93761642650924   -0.77770394595955
C         -23.42025891147604   30.91235131559004    0.02122746205135
C         -24.26880294486561   31.63964777084020   -0.77227635869826
C         -24.16203079208507   31.13638836452603   -2.14715181659528
C         -23.26651048230902   30.13887779843789   -2.13494314406847
F         -22.87734875510970   29.40821226777078   -3.18900804021220
C         -25.11388991591190   32.70929997485481   -0.33209683704739
C         -25.93167281296209   33.41796280286209   -1.11455696146677
H           3.86034580754779    0.90937372705598    6.28539783176387
H           2.86229177728285    1.63703799791559    3.95103269199380
H           2.96757778482410    2.57455191447237    8.17408555418156
H           0.12825321939585    5.58447227798361    5.30741041517750
H           0.05130891695726    4.64461637710896    1.06837451758235
H          -1.36500193888603    7.14591923910533    3.84878746455725
H          -1.36370398111255    6.42655252128175    0.86294941172073
H          -2.89084140532422    7.96655995975618   -0.58682659451764
H          -2.81269947371420    8.89327152053547    3.65630728678680
H          -5.79943072309643   11.72644817716930    0.83004730598610
H          -5.91188072151867   10.84339648433254   -3.41923671970155
H          -7.46277328104864   12.78251599723121   -2.61002020160942
H          -7.33673248383072   13.36211389205389    0.39935364630564
H          -9.04109288205909   14.42803590771108   -2.97738935369784
H         -13.18130633322285   18.98930806684270   -2.53582914762539
H         -14.71590340902511   20.79694729159670   -1.89789469592058
H         -13.36634583190454   20.30645069463753    2.19885389474317
H         -16.81284412503837   23.87682143901391    1.39173571615257
H         -18.16067059440138   24.35740874263828   -2.70998170396992
H         -18.57452840844196   25.74650406454469    1.01981025700286
H         -19.50575986189456   26.03068791294731   -1.89326519491865
H         -21.28550748572453   27.90691392286835   -2.24212811773208
H         -19.86619839440408   27.43179005303034    1.83483615559679
H         -23.27457527781354   31.04520652122402    1.07525943457426
H         -24.70490795671229   31.50519510409558   -2.99429013306956
H         -25.05652045011488   32.93297012004535    0.72579801196561
H         -26.01960805911813   33.23116434617751   -2.17079304735511
H         -26.54155653513788   34.21086515532407   -0.71773280650453
