89
 SCF done       -150.804469667873          0.000745625570
C          -1.06387835635767    9.59865992785590    0.51795511486487
N           0.11550921098191    9.05856932364084    0.13421344557933
C           0.50125363276641    8.11226184685633    1.04553932114026
C          -0.47160407557983    8.06058069117049    2.03080133692571
C          -1.45415478547252    8.99967821045599    1.69128535633136
C           1.68115581674664    7.38716740229838    0.90377044671809
C           2.71220828295043    6.76823232940840    0.75656761076061
C           3.89397676710217    6.03576280758348    0.59992666636486
C           4.29338369611574    5.09426708959058    1.53464307470860
C           5.47887860395312    4.38888458279928    1.37531591678986
C           6.31450642879912    4.58210194374898    0.28669981558444
C           5.90655607562013    5.50366512400073   -0.71663926933111
C           4.71306305047610    6.24930595319826   -0.54389559960044
N           4.34418619529866    7.16524134345680   -1.45883311130132
C           5.08491443353001    7.33070355980210   -2.52134715421052
C           6.22907517743925    6.50893808359561   -2.74729646520754
N           6.61563035805998    5.63680794036023   -1.85527368254022
C           7.01406166688217    6.60322404118109   -4.01267444235828
C           4.68026336016543    8.39256814358631   -3.48602315217196
C           7.54671403302973    3.82877741349591    0.18777059622943
C           8.77062718905561    4.18949694394259   -0.31341727371907
C           9.74102161301154    3.13634643910937   -0.20099774874920
C          11.09978953099379    3.15363701992649   -0.50637124271474
C          11.85142806109167    2.00066660025552   -0.32964869443099
C          11.27802448310404    0.82703131654646    0.18861408985866
C           9.95166646889934    0.81373814645652    0.55251486953509
C           9.19667816529805    1.96381275863501    0.36016657714350
S           7.52846857875221    2.17639185283751    0.77527297048599
C          13.21784239037527    2.00751683935653   -0.68930987758577
N          14.32207300398983    2.01165991807307   -0.99917077833750
C           9.08154858888877    5.49622275670569   -0.87846927390082
C           8.75084760883438    6.67610454293135   -0.23615114886742
C           9.04583633025997    7.91752458120854   -0.78645857807893
C           9.73478843797346    8.03483851727055   -1.98482331692534
C          10.14907751231926    6.83835442466800   -2.63753512043200
C           9.78863405529927    5.57598198060637   -2.10904423266778
N          10.09198664402940    4.45262620541676   -2.78983705205960
C          10.77092045097317    4.54515660111130   -3.90232221109148
C          11.19303655393407    5.81440902425781   -4.39782956058776
N          10.85674401085639    6.91854573278604   -3.78161526930563
C          12.02149153813558    5.93735188953141   -5.63099334253642
C          11.09686714197334    3.27526048467003   -4.61352582877711
C          10.12230202965040    9.28362156274996   -2.57211594293954
C           9.41140997043685   10.44204031548633   -2.58351710459033
C           9.87340060882515   11.71428696757668   -3.11269755499206
C          11.17276754424002   12.06257916688896   -3.36321209764925
C          11.57157992650434   13.32253439497224   -3.85665199107041
N          11.95473543114243   14.32574934363500   -4.26291994794240
C          12.29256838420273   11.23288592204679   -3.13559060856451
N          13.25804307317890   10.63687953829432   -2.95972712227036
C           8.71097635748647   12.58648687967330   -3.24923672038820
C           7.57775232441851   11.90736426752325   -2.76672199014400
C           7.95558681517978   10.55931231267494   -2.30757550080794
O           7.20061623086443    9.70644027928664   -1.88676750163263
C           6.33052347164386   12.50167293778125   -2.77371277300278
C           6.21858123049136   13.79330800704195   -3.26422791837075
C           7.32806318987213   14.48182760141568   -3.74883321171758
C           8.58331938907066   13.87271268772759   -3.74239179104136
C           7.19067088004005   15.86656360089262   -4.29636404540057
H          -1.54555090278232   10.36438665937507   -0.05858541076308
H           0.64462706315280    9.29955490405092   -0.68750850170072
H          -0.46217940190549    7.41639878326824    2.88755421592358
H          -2.34737881175865    9.21322572337465    2.24411898071843
H           3.67614422586273    4.91700536603239    2.40266703540339
H           5.76903232237171    3.67666091591786    2.13502744088438
H           7.49970671211813    7.57654393561845   -4.07335846676887
H           6.36209283119971    6.49373594157292   -4.87796973430852
H           7.76897683099594    5.82256083039110   -4.03062521640047
H           3.74995940995025    8.84318672035229   -3.15259587452065
H           4.55183375622704    7.98589558640211   -4.48752593494207
H           5.45729995884761    9.15414012908482   -3.52026005426842
H          11.57322755531380    4.04956473860041   -0.87433716924827
H          11.89098914614563   -0.05302386067429    0.31072067947712
H           9.49957221616124   -0.06827512024217    0.97840641200657
H           8.24320766991771    6.63131335869076    0.71651019115849
H           8.77168642589893    8.80794926076820   -0.24339610543362
H          12.95183648763354    5.38357617493782   -5.51509938444430
H          12.24619299909379    6.98449254453141   -5.81231511969822
H          11.49117250861278    5.52700423330973   -6.48935959697300
H          10.63143212772648    2.44344166403862   -4.09220200463805
H          12.17560282557063    3.12407088765685   -4.63364576724160
H          10.74100400891193    3.30627980132310   -5.64199325778540
H          11.06089170869612    9.24314553538919   -3.11161486968403
H           5.47313535109510   11.96538071638007   -2.39589970007254
H           5.25348260143836   14.27858916443280   -3.27158036275937
H           9.43324522781032   14.41388062161249   -4.12632614160926
H           6.24009439558240   16.31018758270949   -4.01230722451824
H           7.24623860859113   15.84064266242830   -5.38491732935649
H           8.00053935371769   16.50030641863739   -3.94117168752476
