122
 SCF done       -225.215725235319          0.000788693461
C          -4.76362156464379    0.86642889364144    5.58603245689876
S          -4.77461426254166   -0.83369254533877    5.46518424596307
C          -3.52753889156579   -0.83338422012773    4.24844963033544
C          -3.13342068428901    0.48077052196883    3.96207940869429
C          -3.84940278749910    1.44907068415615    4.73522070515370
C          -3.56927535255274    2.82570106349385    4.56073448276806
C          -2.62990637672198    3.22954820191026    3.66305237213807
C          -2.30438292063780    4.67182023995951    3.44377227476809
C          -1.91790150894491    2.25306971351004    2.88884157553502
O          -1.01110721062213    2.78063726268371    2.02711173084075
C          -0.26203631725206    1.90986985841584    1.21407742181594
C          -2.16388029752166    0.91206377247233    3.03713824538635
C          -3.03445501097732   -2.02311608613792    3.67603964789619
C          -3.48060877999197   -3.27368221531579    3.96540059306438
C          -2.97665758519554   -4.45879847179428    3.37929305068433
C          -1.94382847708388   -4.61549933232751    2.46497631753563
C          -1.74744191264200   -5.94768356199223    2.11444350736338
C          -2.63389047542459   -6.82632690743597    2.75894216078302
S          -3.70676951044570   -6.00151268504458    3.80458122923856
C          -2.35585735854644   -8.14494953673248    2.32397270734228
C          -1.28854820972443   -8.10208504119306    1.40769761242002
C          -0.87135245654510   -6.72397455816257    1.24502741247045
C           0.12496578122345   -6.24365322478261    0.44380888507901
C           0.42477711485580   -4.86875524414352    0.36830748828207
N           0.67086039223355   -3.74983479037198    0.30365916741698
C           0.91471020556787   -7.08864659892530   -0.36227096902491
N           1.56119810982930   -7.77160780389903   -1.01920541207114
C          -0.94803719554080   -9.36235018789276    0.90990443244300
C          -1.74603815096051  -10.35848269625215    1.43443124014105
S          -2.93626587257103   -9.73038493487828    2.56761113158283
C          -1.70787411037821  -11.74942531065873    1.13903807406374
C          -0.81036484173569  -12.41372825975301    0.35106562982141
C          -1.07621973072309  -13.79822402970467    0.22764226791828
C          -0.33453844738069  -14.76787309016899   -0.47866834368463
C           0.83886320656659  -14.43978014018185   -1.26249334973201
C           1.98583340640430  -15.16986530295480   -1.39246345928014
C           2.91213683474926  -14.58051659612458   -2.27958179226370
C           2.49014995171704  -13.41304264113178   -2.84564833241628
S           0.90843947170891  -13.01564921013545   -2.26707826808552
C           3.19366513856314  -12.53886209807102   -3.81713038455948
Cl          4.44632829274309  -15.28967767145887   -2.60743282304358
C          -0.79519550645116  -16.07818231454155   -0.39952370070758
C          -1.94147423204090  -16.46236091892470    0.33921145847160
C          -2.67266930970714  -15.49673715653303    1.05997304212778
C          -2.21905031152086  -14.18565258324336    0.97080711593841
S          -2.93274481726000  -12.82160748343436    1.78414576766621
C          -3.82777051047070  -15.83209814665792    1.86734775493174
C          -4.97437515493273  -15.10963362391928    2.03283651188916
C          -5.86664695171856  -15.70267986152209    2.95215524680683
C          -5.41957666377081  -16.86592659875775    3.50616745158692
S          -3.85562619358097  -17.25640454719813    2.87424530081555
C          -6.08503870647720  -17.74020419959795    4.50466743526166
Cl         -7.39219844177529  -14.99959361431484    3.33189302641527
C          -2.23386375148593  -17.83702140416328    0.18237687136531
C          -1.35604195519986  -18.49708313255865   -0.62927439455702
S          -0.10001613480202  -17.43951774784913   -1.23895177024681
C          -1.38393759404106  -19.86878978701561   -0.99799769685883
C          -0.52710846416345  -20.54036431283013   -1.84354994095585
C          -0.87843702671368  -21.88573161381501   -1.98684718948248
C          -2.01438730710832  -22.23569329594838   -1.23586651961559
S          -2.64638864317133  -20.91619686002501   -0.35686149468847
C          -2.29884240109359  -23.60637941136187   -1.45175666630794
C          -1.34797263975287  -24.12363521430326   -2.34381947201865
C          -0.41520275134325  -23.06126150768907   -2.69936619951063
C           0.67366350087785  -23.16712550145791   -3.51549801384225
C           1.51615587028657  -22.07138862381846   -3.79585325133069
N           2.20713851357732  -21.18675674777709   -4.02970646809940
C           1.03349394044064  -24.38788822209504   -4.12181859305013
N           1.33483112111618  -25.38327737918471   -4.60625299568407
C          -1.55565379105125  -25.46618674106391   -2.65389341793211
C          -2.65377348010327  -25.99476908735192   -1.99364720345176
S          -3.44288805386247  -24.78581457872306   -0.97954188506382
C          -3.20533176350958  -27.29784057606700   -2.05666515866228
S          -4.81757641196898  -27.54683484959137   -1.46459442949325
C          -4.82210422723706  -29.22087275590750   -1.89521532274666
C          -3.60124518000934  -29.57969974574329   -2.47321510035225
C          -2.67252876033368  -28.49547800895359   -2.55522125321967
C          -1.38134482836684  -28.75016775440050   -3.06336136133533
C          -1.03464537934186  -29.98936921334064   -3.51686124410696
C           0.32586259192801  -30.27630511194749   -4.06247099099475
C          -1.98675017533495  -31.05650747226833   -3.47310646749856
O          -1.53119198811420  -32.23787300465423   -3.96802508463528
C          -2.39733225677640  -33.34480337116096   -3.97394811871980
C          -3.23604317504572  -30.85667027702218   -2.95029725552304
C          -5.96129333387664  -30.04856517522797   -1.65331122394191
C          -7.09443474292173  -29.64157925951399   -1.07754899190836
H          -5.42678695639730    1.35481860667826    6.27203387735676
H          -4.11357276531684    3.54864993636058    5.14963471393774
H          -2.90031344025143    5.30618954740933    4.09395619519264
H          -2.49290180450501    4.94289335478700    2.40619561966058
H          -1.24783496127700    4.84958973488060    3.63713616592227
H           0.38499691639675    2.54926770427777    0.61588470240488
H          -0.90716906262013    1.32579561565487    0.55032802496699
H           0.35340551813804    1.23076492360240    1.81217375168617
H          -1.62971339840546    0.17815219515590    2.45682854921482
H          -2.24403730382050   -1.90122529181661    2.94955322795297
H          -4.28091226627608   -3.39214429243488    4.68400170013211
H          -1.36772230757051   -3.79441254046334    2.08151410301811
H          -0.16873764362149   -9.54923655866629    0.19471682812789
H           0.02357872481582  -11.92470362968681   -0.11454225882738
H           2.19020376129922  -16.07571269735311   -0.85286554358809
H           4.22054799617975  -12.87606165870240   -3.93476754583993
H           3.19227243870195  -11.50537596414443   -3.47419567429994
H           2.70081898341404  -12.57077545483505   -4.78913219139819
H          -5.20236409358244  -14.20630572799030    1.49866364778957
H          -7.08579352726048  -17.36689504840863    4.70729161734918
H          -5.52023765968301  -17.75726146563914    5.43677096135034
H          -6.15352921861525  -18.76264769866798    4.13550142093634
H          -3.07684559444802  -18.32743905877684    0.63371402433384
H           0.30383769749289  -20.05926414076122   -2.32774262111245
H          -0.96641977543921  -26.01630758892735   -3.36115998845224
H          -0.64264444545569  -27.96670376233582   -3.07916132709984
H           0.94217242639360  -29.38189246609483   -4.05894654069570
H           0.24546482120363  -30.65313938378364   -5.08074099226110
H           0.81045178242053  -31.05078697497711   -3.46978700725481
H          -1.83146708203064  -34.16012374756784   -4.42178410397680
H          -3.29153349087921  -33.15171654243685   -4.57558628725353
H          -2.69616485248070  -33.62721656871957   -2.95912614480153
H          -3.95398390391850  -31.65764144283519   -2.89075515458504
H          -5.86358322601972  -31.07749242264576   -1.97241055129422
H          -7.22343525830706  -28.62390512788228   -0.74803899579733
H          -7.92015115516119  -30.31199078703255   -0.92142828112912
