88
 SCF done       -184.009663977830          0.000451361412
C          -1.65291402748194    6.77055424462136    4.48919156264018
N          -1.41874070851569    8.04599630754801    4.51154814182411
O          -2.48037579436267    8.68072698665578    3.99913988069451
C          -3.41728750419805    7.77114819441701    3.63605946481235
C          -4.64052443380570    8.24609779062042    3.05735026433340
O          -5.54562124149887    7.53572292235785    2.67027008955406
C          -2.93986229065032    6.48630779687237    3.93430448717986
C          -3.54982384645185    5.22413935792731    3.73528443660273
S          -5.08725833475201    5.06049433076045    2.92757681470266
C          -5.06422831498219    3.32524590253691    3.04651335479096
C          -3.91842265640492    2.90644699085559    3.70084484709241
C          -3.05798851467744    3.96547717419650    4.10089509146530
C          -1.92721042383452    3.47181612789124    4.79504211430077
C          -1.93903229870395    2.11259368760349    4.90500766545247
C          -0.95604918391147    1.24872191764404    5.56564627536800
O          -1.04381801271239    0.04906946717652    5.63283637081662
O           0.05396824023708    1.95887201114990    6.09370469430504
C           1.04966039255251    1.19626779378743    6.76220738433962
S          -3.32107639260305    1.34788863936979    4.16793267334148
C          -6.11732062445486    2.53694817308300    2.52022260703225
C          -6.17622883141919    1.15686703150122    2.42316887721772
C          -7.36667342192014    0.72914439828968    1.83741592646817
C          -8.22347103336631    1.79037940898588    1.49680953249802
S          -7.55913038909153    3.31384701864732    1.88329554196506
C          -9.40035182323353    1.25120866544308    0.91603915762725
C          -9.28326361367670   -0.14747134175480    0.87921114839890
C          -8.00271623647936   -0.52339332453304    1.45742742104882
C          -7.50320093508404   -1.78276315243075    1.60796530102467
C          -6.23671920897222   -2.02877964459862    2.18036166936861
N          -5.20869239342850   -2.24292898888758    2.64002343908518
C          -8.21764041320930   -2.92837935485703    1.19708322893101
N          -8.79479429091467   -3.86249276103806    0.86730110663413
C         -10.39835666045735   -0.77059509743444    0.31530548860167
C         -11.36112934983188    0.14153300116424   -0.06654792660630
S         -10.88368762747069    1.79845140549235    0.27074315989341
C         -12.62216627504119   -0.12873469339992   -0.66444409924843
C         -13.61806473925127    0.76019507836749   -0.95062738222632
C         -14.75938078399075    0.16784733733661   -1.54159905819320
C         -15.96346589862446    0.79137820407248   -1.92176543085947
C         -16.23030491609116    2.19311953175050   -1.67392410992758
C         -16.91754049354749    3.07253374080715   -2.46136165447617
C         -17.04791116313879    4.34866629428582   -1.87252379236238
C         -16.48441122640466    4.46233327806906   -0.63484793767338
S         -15.75599805782073    2.96049695424642   -0.17923264345950
C         -16.44506624870228    5.64028562555708    0.26750035338727
Cl        -17.85644439207515    5.64452013336350   -2.66409695216628
C         -16.92225191429865   -0.02164328768850   -2.52541687508754
C         -16.74209066128098   -1.41365709055277   -2.72234240110203
C         -15.54911615033921   -2.04671444347131   -2.31079344610762
C         -14.58301562521103   -1.22577684706048   -1.74276854276222
S         -13.03832572081554   -1.76267436914166   -1.13805928587750
C         -15.33144504264318   -3.47286031554009   -2.44295081723520
C         -14.17331631161557   -4.11651684652300   -2.77349168585250
C         -14.30149107027421   -5.52236541637370   -2.75326291129494
C         -15.53949291846890   -5.97237519464721   -2.39757621477483
S         -16.58847801665765   -4.63013822074408   -2.08949354578132
C         -16.02122151562298   -7.37000810410819   -2.26447141045581
Cl        -12.99216532161191   -6.56778926534054   -3.14790883074298
C         -17.86515699204955   -1.99588368385873   -3.34937503514034
C         -18.87733767666253   -1.10833201439442   -3.59738885950404
S         -18.48207320432641    0.51263996509478   -3.08045995788063
C         -20.12256856450401   -1.43344319166711   -4.21383956214932
C         -21.21740322048741   -0.63307339318110   -4.53850270785146
O         -22.16723462585572   -1.40888953746681   -5.11071766185284
N         -21.73612684115171   -2.67524273648658   -5.16990920131549
C         -20.54502324637359   -2.72294868670577   -4.65386401933354
C         -21.49599129085593    0.77704562757898   -4.38586315937996
O         -20.74601495591853    1.58574918446541   -3.89409698231738
H          -0.90986821585455    6.09247925202303    4.85074229897303
H          -4.69485890279680    9.34475638182156    2.98961775993037
H          -1.13734655198542    4.06226149404453    5.21693672543606
H           1.77428868504428    1.91141487234801    7.14218166547513
H           1.52311664193998    0.49982270801453    6.06734258609594
H           0.60425037983018    0.62656974187119    7.58024372290002
H          -5.38473441761855    0.51131966732689    2.75619597115352
H         -10.52101362131422   -1.83085901091568    0.18552062464956
H         -13.52519106793045    1.81068938608531   -0.74452688253053
H         -17.29609920308486    2.84309431254884   -3.43960194591290
H         -16.88067899366903    6.49946706837800   -0.23619265210064
H         -15.41972031064557    5.87433220536080    0.55085565194110
H         -17.00842196376437    5.44371246743975    1.17968497297479
H         -13.26562903486399   -3.61867769673459   -3.05900828873095
H         -15.22363676239577   -8.05735627587991   -2.53463534668758
H         -16.87770840900566   -7.54652384911516   -2.91425687169631
H         -16.33083743845221   -7.57330885495825   -1.23960489257113
H         -17.92147935799081   -3.03377228489555   -3.61797585366507
H         -20.01697432099937   -3.65251143394506   -4.60110925419828
H         -22.49067985326226    1.05889315121078   -4.77206546283793
