89
 SCF done       -185.038126945881          0.000757027302
C          -1.05031462921344   -1.64865898871758   -2.97581390815571
N           0.11711796318799   -1.25255067949870   -3.38427585468160
O           0.42905402654198   -0.13361245163205   -2.72199127428849
C          -0.56992491206085    0.19131967841739   -1.86690013363384
C          -0.37237082681425    1.38903264161325   -1.07434035361807
O          -1.14109161273691    1.83874624146460   -0.26124891690271
C          -1.57779361732448   -0.76897217257494   -1.98517085252591
C          -2.83515431742322   -0.91032376968845   -1.33024988104628
C          -3.42253132568652   -0.10702487238261   -0.37456660401732
C          -4.67343626984500   -0.59155474612924    0.01302807939304
C          -5.03472543107351   -1.77562766967824   -0.65572094105045
S          -3.84393880165654   -2.29089566329877   -1.75696764540092
C          -6.31280265867732   -2.18589646015173   -0.19952683364244
C          -6.76319761562967   -1.26039641358607    0.75480319761390
C          -5.74578279885091   -0.22997773111388    0.92495506491865
C          -5.80396372656728    0.83529739405770    1.77264334615654
C          -6.91909830518094    1.05287193887200    2.61117516107811
N          -7.82560753979410    1.22542134086558    3.29150816165304
C          -4.77390815370519    1.79448476507221    1.89091452626027
N          -3.95979562364340    2.59074993665325    2.01618276738543
C          -8.02225421307209   -1.57576988029188    1.26345892982416
C          -8.52893092058183   -2.73642228401121    0.70652636510544
S          -7.43340005614910   -3.44870594473006   -0.46707522010956
C          -9.77366705742807   -3.35377780905392    0.98895474385055
C         -10.25974628336929   -4.54738145693458    0.48747041262973
C         -11.52447206576114   -4.84801384683682    0.99277582683765
C         -12.00454968533584   -3.86913930069404    1.88113287362979
S         -10.89955089637656   -2.58601703493201    2.10019167995999
C         -13.28673792293520   -4.26199186498701    2.33564864312861
C         -13.61706528803818   -5.49282553317817    1.74207860754353
C         -12.52044946824828   -5.90024749345876    0.87577674401299
C         -12.44642795725761   -7.02930888347163    0.11438627574314
C         -13.48660833225250   -7.98201544574778    0.08520355722546
N         -14.33372845695275   -8.75423797967785    0.06093921415294
C         -11.32593423903823   -7.31571950030098   -0.69380559558970
N         -10.41420317419044   -7.54766429647751   -1.34904975902370
C         -14.86771050027288   -5.96586811838030    2.13190310454396
C         -15.50097961452914   -5.10395059682377    3.01171663777709
S         -14.51919589757394   -3.68362607995962    3.36369797380282
C         -16.78479253641359   -5.25773258725162    3.60879868219131
C         -17.35947318106514   -4.28518480656910    4.39638840577183
C         -18.61019991564802   -4.38526578352319    4.99489288818036
C         -19.43446416836933   -5.58397105579681    4.83773559119190
C         -19.06979529199171   -6.66219002111366    4.10783728059819
S         -17.58497402030387   -6.78260236301036    3.26111638676516
C         -20.61881025570023   -5.32713238252211    5.58094499028915
C         -20.55993733482020   -4.05650467629943    6.16027213459363
C         -21.72578142294227   -3.77207493359434    6.90763433133328
C         -22.60817379562833   -4.80516201843346    6.87224711533680
S         -22.07519001735786   -6.16101329470210    5.94031612413707
C         -19.30080338381212   -3.44581668875662    5.79838095254920
C         -18.81853939091306   -2.17069074694917    6.13345721557950
C         -19.49325667987678   -1.23114492243303    6.86579237890841
C         -18.94998642881751    0.03135514830021    7.13700763193567
C         -19.59359085088190    1.01921710972369    7.84559212938019
C         -19.09055111121780    2.34176379762291    8.13881816313760
C         -17.87218558099734    2.86683015080186    7.77985101357242
C         -17.44760907882232    4.17206651672151    8.10030299502419
N         -17.04028993982504    5.22150083879389    8.32749207042096
C         -16.87303730453424    2.19719418082944    7.04581680399702
N         -16.01080714537527    1.72343475752472    6.45167301431292
C         -20.11923206084253    3.05099474862194    8.89598394362623
C         -21.22909143973881    2.18947396302248    9.07116199069157
C         -20.94474315596266    0.89004505642393    8.42918399874234
O         -21.69020005378517   -0.07109654487344    8.40292056320078
C         -22.36521878279617    2.56937324337659    9.74196859097073
C         -22.41078589023345    3.86538223104010   10.26673651526119
C         -21.29739936134674    4.71918203303761   10.08847502521784
C         -20.14727492607726    4.33357605242620    9.41004922381664
S         -21.56351221937671    6.27606935687978   10.81411705570712
C         -23.14572771259394    5.76463824089213   11.33855946855708
C         -23.46057035695684    4.49467494565062   10.99048700098141
Br        -24.23384137692075    6.95620255499874   12.29559956404964
H          -1.49921646975289   -2.53462948545039   -3.37798732224852
H           0.59542593039840    1.87150885621321   -1.29585796090091
H          -2.94955815382439    0.78063899208275    0.00709991787176
H          -8.55541850638489   -1.00433541305636    2.00181597057446
H          -9.70758379197311   -5.15590261910707   -0.20615342123620
H         -15.30953068676121   -6.88644181012909    1.79542570115143
H         -16.78378213088309   -3.38102722848285    4.54535910580066
H         -19.69757186784330   -7.53274524241037    4.00255202396663
H         -21.92621376865456   -2.86665275140734    7.44974427798236
H         -23.56765818341362   -4.86063790297983    7.34807164246439
H         -17.83221971172134   -1.91039608307546    5.76743446421081
H         -20.47763105987856   -1.44410601636430    7.24345338395648
H         -17.95906314843748    0.23210718877715    6.75084169530036
H         -23.19420770154587    1.88878209435891    9.85767317884038
H         -19.32709758722208    5.02314517461031    9.30173846823882
H         -24.39382878512952    4.01975117663664   11.23239951334585
