72
 SCF done       -150.016115404360          0.000637011662
C          -0.99348079709290    1.09753445701002    3.64102631304160
N          -0.03038350228492    1.32750971200286    4.48164553295796
O          -0.45824633215134    1.01011125188498    5.70602976995622
C          -1.73140223097306    0.56497383325771    5.64487146118217
C          -2.39767892232476    0.15657420126578    6.86835660351813
O          -1.91235013100647    0.17949629482851    7.96952133956039
C          -2.14845330369270    0.59576175698966    4.31256652643329
C          -3.38006064446087    0.23872322367315    3.69112865829891
C          -3.64096185032207    0.29371314336225    2.33691813792937
C          -4.93692776102770   -0.12025071814713    2.02523106671067
C          -5.67678561083132   -0.49482582116048    3.16705343722382
S          -4.77146347256441   -0.33874394018698    4.60711175255500
C          -6.96351908624784   -0.89671439438078    2.76229177850466
C          -7.05289500693863   -0.76958295858386    1.35817608658713
C          -5.76695476719971   -0.29287052489380    0.85291494692982
C          -5.39416424134927   -0.09997410632621   -0.44723846009790
C          -6.23905595571852   -0.31334213677931   -1.55150978049290
N          -6.88242232190147   -0.48357487405662   -2.48729837249424
C          -4.07703526999604    0.28543024948568   -0.78387100584014
N          -2.99530766796556    0.56007590797493   -1.04576605766426
C          -8.28418994993406   -1.14282071312065    0.85063623565505
C          -9.16381076841629   -1.57743751562519    1.84974047265012
S          -8.41125743773972   -1.49686914787575    3.44596988173075
C         -10.47553638123866   -2.06041476202922    1.76995077010617
C         -11.26956388402005   -2.15630283650028    0.64683159809739
C         -12.58269669177033   -2.68291213703779    0.59021500209547
C         -13.15317567017626   -2.65103073443739   -0.65220345088802
C         -12.32243719032792   -2.08575533347732   -1.63588390277807
S         -10.78911594687685   -1.61566133994881   -0.94243386284594
C         -12.51756955716779   -1.83911837466508   -2.98816440956812
C         -13.57813691095757   -2.13012166125582   -3.86658767987066
C         -13.35986125275588   -1.70268847433353   -5.14814061711522
C         -12.12359432776110   -1.04169059666019   -5.34405051505678
S         -11.24746994629102   -0.99523224659244   -3.82961207196193
C         -11.58864102738605   -0.56504763821784   -6.52308851403030
C         -10.35873137511594    0.10505618462696   -6.61251550198226
C          -9.63336509243159    0.71089980753179   -5.58495447621128
C          -8.39255214268212    1.15211353903489   -5.99877566141154
C          -8.14103785344765    0.92188512856520   -7.36637609806013
S          -9.47584917008841    0.17492511502316   -8.14227068196779
C          -6.83146805124037    1.36342327615945   -7.64769621566723
C          -6.24564370288411    1.85640244429287   -6.45818926282779
C          -7.20752214575688    1.73691629972700   -5.38351232469223
C          -7.06505016231618    2.04440212541494   -4.06276183358663
C          -5.86163298741986    2.49455104393818   -3.47951854837550
N          -4.91165486476688    2.83701334826889   -2.93655618095244
C          -8.12726415476791    1.92727688875258   -3.13851516963174
N          -8.97993024866259    1.88582392582601   -2.37197999890033
C          -4.94353589450006    2.32074491221675   -6.64363073357285
C          -4.52608167118203    2.17985457900350   -7.95086098718748
S          -5.76939709758008    1.46176115666761   -8.97792152725790
C          -3.27469931618348    2.51235112483778   -8.54097709016043
C          -2.15029744648966    3.16564815293705   -8.02853062257431
O          -1.20835996829954    3.21713549243202   -9.00187572369695
N          -1.66985582574779    2.63421526679083  -10.11448144997478
C          -2.87534528827077    2.21385996774318   -9.87697514666147
C          -1.80879750644687    3.79286274128074   -6.76837562989283
O          -2.52491029909999    3.88425678705176   -5.80132926209631
H          -0.85653360624875    1.28826265106700    2.59666330464548
H          -3.43333942517134   -0.19387518674596    6.69637122972654
H          -2.91800583994263    0.62042703178630    1.61285173907290
H          -8.53692706925958   -1.11030259217299   -0.19218448746260
H         -10.91741507910864   -2.39585291728353    2.69958859899112
H         -13.06811192499648   -3.06997884210500    1.46879927658168
H         -14.14325804206890   -3.00658148740857   -0.87543986719532
H         -14.46120552246270   -2.65298745222174   -3.54479007046600
H         -14.05485618978975   -1.84218802877280   -5.95750962917996
H         -12.11790992443118   -0.78033787539981   -7.44115812952605
H         -10.01709433874733    0.86788005832716   -4.59618503646443
H          -4.31926988417262    2.74552080762432   -5.87741414335335
H          -3.43959292902402    1.71063684251386  -10.63632628274963
H          -0.78715214029116    4.21128663718649   -6.78223504642225
