74
 SCF done       -172.966253970592          0.000674420420
C          -1.64621775416301    0.84978991851545    2.13500633062335
N          -0.60520922278084    1.59170077498462    2.36468880426889
O          -1.03042409402501    2.75723414822295    2.86327999889506
C          -2.38159990493180    2.75663881896979    2.95225745020574
C          -2.99038555102081    3.95297144832405    3.50194870890590
O          -4.17028126643196    4.13888897852210    3.66515491017040
C          -2.85115352947039    1.52667527815103    2.48582384923955
C          -4.16967030839902    0.99989940418569    2.36094632623795
C          -5.38430912175450    1.60911000330668    2.59991554556403
C          -6.45415843399789    0.74286780178750    2.36450617055634
C          -6.04267974454656   -0.53438742782885    1.94699465342263
S          -4.34990877478269   -0.66961906416697    1.83096912441513
C          -7.19188222870882   -1.34568848595885    1.76430575419172
C          -8.33080027832990   -0.58372283417666    2.06661928785149
C          -7.90825088691862    0.76369684830306    2.42745682945349
C          -8.71149033806486    1.82428541997103    2.71707880038235
C         -10.12196829562696    1.73834291967897    2.68715344909527
N         -11.26650706350894    1.69864137848687    2.64644203844161
C          -8.21158228863491    3.10911411795234    3.02733701110636
N          -7.84361427671744    4.16598678109216    3.27305177045032
C          -9.51860673978671   -1.30829975795758    1.95362944363450
C          -9.28873796282489   -2.61394266333977    1.56044637843927
S          -7.57874700450392   -2.94609407139715    1.31991348420527
C         -10.22982134140659   -3.66272635109629    1.35486383506529
C         -11.55919497392783   -3.72165244202746    1.75221677022067
C         -12.22332092793867   -2.66909267322867    2.40235566938554
N         -12.76535285124480   -1.79144551759921    2.90294779049748
C         -12.17790685924756   -4.95055032365878    1.38980270367121
C         -11.30299934952088   -5.77576475167816    0.69358287958083
S          -9.72775000363827   -5.11185829273276    0.50936792142196
S         -11.98204262114274   -7.27473712267297    0.14385074586693
C         -13.48179175061794   -6.80315610692067    0.87407441879244
C         -13.45571584588758   -5.57023176716139    1.52166395279995
C         -14.70037656123547   -5.29313218118005    2.14526517705396
C         -14.88474763456733   -4.27330251756799    3.09581594402656
N         -14.95806463023899   -3.53066226891314    3.96707356842919
C         -15.63618487768484   -6.29535854409775    1.91572384948884
S         -14.98365456020678   -7.63332370221150    1.01012953953146
C         -16.99720678777843   -6.31215715188225    2.35373916192475
C         -17.70743683209776   -7.51031566825352    2.54556551877598
C         -19.02683084789867   -7.53718726637247    3.11850439238137
N         -19.64734401575952   -8.73586047797483    3.23430094304587
C         -19.04272183030130   -9.81303800656366    2.86233780376843
C         -17.72352747786439   -9.78316099897448    2.33248178242405
N         -17.10039491817940   -8.66264121574450    2.18597793057697
F         -17.10435093044720  -10.89896798010817    1.96478927773916
F         -19.70342740613313  -10.96255563872727    2.98317409788595
C         -19.70101683634278   -6.36090928401216    3.51191427582920
C         -19.04076437811557   -5.15552762325162    3.19195232168246
C         -17.71602136280275   -5.13286980814499    2.61425261066197
N         -17.30434114434229   -3.89027674607591    2.35627841979033
S         -18.41807262405734   -2.85885038220037    2.84709110538696
N         -19.50079141968299   -3.91112235163690    3.37355026465280
C         -20.96933630029771   -6.34977467517504    4.21510844187034
C         -21.85902565225603   -5.34513410858528    4.07909273363119
C         -23.04585800021390   -5.25759639556147    4.88540959862134
C         -23.41586756878764   -6.24500432696034    5.70137142527875
C         -22.65714847539738   -7.54138305779985    5.75626384427267
C         -21.19556931830463   -7.43237316059504    5.25690712476366
N         -20.21906292325294   -7.16478864111741    6.28839866842571
C         -20.50297567730388   -7.42760097776852    7.48376649153153
C         -21.81077446775492   -7.97664446091161    7.88695130363763
N         -22.78763555795288   -8.05520966437358    7.10063629231719
F         -21.94446481449526   -8.41079896881742    9.13565954075192
F         -19.60738947692791   -7.18630819418300    8.43740085672314
H          -1.53715809636702   -0.13615941453071    1.72983256425604
H          -2.23347355006841    4.70780896111913    3.77738721796306
H          -5.46616762141147    2.62756972994629    2.93618381474234
H         -10.49941909951588   -0.91355016199576    2.14199051326442
H         -21.68074515264665   -4.56279871654608    3.35987407281012
H         -23.62862726774932   -4.35161918002625    4.82007081227838
H         -24.28411261708496   -6.18512403719649    6.33827933617705
H         -23.19769287191254   -8.25777385955330    5.12099376269266
H         -20.89748682027758   -8.39025126242852    4.81503079197779
