104
 SCF done       -223.352452554378          0.000798853064
C          14.72891385512350   -6.33663036180405   -1.16799212252878
C          13.81939893108313   -5.33316199670848   -0.84507517343409
C          14.21875416140785   -4.19362318013469   -0.07019125347609
N          13.28735288993122   -3.28919152948712    0.29522571381360
C          12.06749334171799   -3.43243700426543   -0.13885231565952
C          11.70100537556251   -4.50710292828829   -0.98071659662166
N          12.54410623500757   -5.44487716770590   -1.29552908586734
C          15.57454822576219   -4.03631120214931    0.33181515170805
C          16.47461866660989   -5.09340407995909    0.01815558874700
C          16.04607447919398   -6.23695837169223   -0.72846996842748
N          16.92212486638710   -7.22645912240632   -1.03540561926636
C          18.15089212115305   -7.09288379000284   -0.63104907521070
C          18.57445703839866   -5.96771631218922    0.11241428761207
N          17.75862847005629   -4.99984057997445    0.42518891352794
C          16.09736039979435   -2.89855298495001    1.00309910856270
C          15.42710075952524   -1.73134458119548    1.24115527215355
C          15.97729228738392   -0.61537912320667    1.87948006790620
C          15.26125226096682    0.54960778373881    2.05519582835194
C          15.68035669705594    1.77145794627507    2.62675311428218
C          14.73116817217511    2.75447170950136    2.60943153548627
C          13.51225351437094    2.34999274552298    2.02912122460637
S          13.59749670372188    0.68592752327755    1.51576669195460
C          12.35681500044253    3.07990876661629    1.79176711121401
C          12.08526886423306    4.44859117738842    1.96363882107588
C          10.86311686405741    4.82727056659295    1.48281459563724
C          10.10731771320138    3.78048271338664    0.90268815107235
S          10.98766515660437    2.27877310175324    1.05569540789638
C           8.83944490315457    3.91236904874007    0.37505835921253
C           8.02915304443472    2.96458257722700   -0.28405281702455
C           6.58163109254384    3.27740267137607   -0.26291589542350
C           5.93172689683170    3.61524210449023    0.92439726780123
C           4.57824935397698    3.93270637730779    0.95994731476459
C           3.83737900308562    3.92886149203026   -0.21673487030751
C           4.46563295807055    3.61318094052293   -1.41870211393631
C           5.81853973555995    3.30054103198807   -1.43246006660117
F           6.39209825199016    3.02365480532177   -2.60564039104068
F           3.76577659355749    3.61601753573072   -2.55494853263862
F           2.53875857803108    4.22658092705269   -0.19513424636310
F           3.98971178220485    4.23530452014909    2.11893992243153
F           6.61042860066709    3.60064092995324    2.07752867072387
C           8.44924354535457    1.82819966088668   -0.97501986856679
C           9.80918183957430    1.69819789375995   -1.49834351441860
C          10.52697355543047    0.49938794257105   -1.39571934440993
C          11.81280219698393    0.36324613638054   -1.89945813477499
C          12.43038516276648    1.44083785615496   -2.52553277572801
C          11.74205205431231    2.64468414410507   -2.64392723644880
C          10.45322946799898    2.76060865252106   -2.14199486803963
F           9.82268078235729    3.92946829011189   -2.29175110578002
F          12.32497364818562    3.68812065108967   -3.24008395836466
F          13.67272489616691    1.32538882659257   -2.99710172713589
F          12.46647454606806   -0.79478249707836   -1.76980719110946
F           9.99956459848811   -0.53870042266105   -0.73901136739647
C           7.53570017869594    0.77385281575244   -1.29599131181247
C           6.40766445991111    0.39985604711055   -0.60584351324911
C           5.69798089453695   -0.65025653707751   -1.21635871032558
C           6.31600132033751   -1.09538883649561   -2.39971880123425
S           7.75690485904768   -0.19066369618353   -2.74771868872808
C           5.83338223363322   -2.13390644643863   -3.18348141169246
O           6.59935787176724   -2.39688276100127   -4.27085224365558
C           6.23317171870755   -3.31799065019379   -5.26682769342225
C           4.64686219616186   -2.75885458204443   -2.73473721189871
C           4.00206910949305   -2.28690086748058   -1.54162382328762
C           4.49244104314381   -1.24525143905429   -0.77312754088921
O           3.98335289648428   -0.68951854442930    0.35006957169189
C           2.77919248120144   -1.15476932225282    0.92039114146402
S           2.55576587141601   -3.22032946853675   -1.20387762910540
C           2.81265699508242   -4.21660451603363   -2.60337397825350
C           3.94219811326374   -3.84637611332620   -3.29381902991177
C           1.92536132211993   -5.26979679160627   -2.94128199851415
C           2.07036283922494   -6.14267251623441   -4.10806389082992
N           1.13723004227096   -7.04009251209512   -4.23114618964665
C           0.30227977075847   -6.84612347875464   -3.17084093335507
C           0.77417475013390   -5.73112994275724   -2.33180703008939
C          -0.11547436151327   -5.54540720545124   -1.21795805002466
S          -0.03193733909641   -4.45023372149526    0.00315888863806
C          -1.13326686534959   -6.56044270108977   -1.39822219876578
C          -0.84567639148500   -7.35103971394619   -2.61828066999413
N          -1.79393340630819   -8.30420046241311   -2.80016748836596
C          -2.62606726812439   -8.15608555683048   -1.79824779234257
C          -2.27532588178844   -7.08721010402213   -0.88438341650912
H          14.41898373775304   -7.17535136158691   -1.76918574566286
H          11.34353473743903   -2.70073777954397    0.19126723641272
H          10.69413280966287   -4.60231868663696   -1.36418911464761
H          18.83767011640083   -7.88989079626859   -0.88283211921292
H          19.59554811641658   -5.87204142500728    0.45685416269955
H          17.13339425110864   -2.98934539025456    1.30423947734106
H          14.40236770414558   -1.65415405474478    0.90421396553021
H          16.99865867264855   -0.64727551551494    2.23553486486767
H          16.67246015169588    1.89400259008369    3.02432210715154
H          14.87692219619287    3.74775811480884    2.99453004834509
H          12.79461330189362    5.12015031649516    2.41271246720065
H          10.49021338587924    5.83562088391470    1.50704892972320
H           8.38361340655082    4.88031214944747    0.54353366012116
H           6.11210413903092    0.81714458264828    0.33827735225166
H           6.98291056612809   -3.19862941819115   -6.04906224017266
H           5.24646002220737   -3.09533426040853   -5.68198314833806
H           6.27056784735888   -4.34727164834924   -4.89751020394768
H           2.85619660029391   -2.19567814162280    1.24196178753701
H           1.93633776855304   -1.04603937871305    0.23413536956879
H           2.61560889446579   -0.52228410392127    1.79197878582511
H           4.23826445607579   -4.37263648408290   -4.17893826329336
H           2.86218150031262   -6.08873225463970   -4.83457546545109
H          -3.48414807305752   -8.79903393738499   -1.70624616479481
H          -2.82513590162286   -6.80800619034004   -0.00749298915145
