111
 SCF done       -206.358261066180          0.000374025029
C           4.88005620241410    2.61859449409019    3.77313769388087
C           5.18328713164545    1.54667309326729    4.52547354326216
C           4.10979819819833    0.56172394468436    4.36965323267179
C           4.10974396454412   -0.71021307236362    4.95255798984381
N           4.11414480795171   -1.75647932278099    5.42628031967740
C           3.15028455862841    1.08524749190755    3.55552479238724
C           3.58457096979172    2.39928317492028    3.13966581467725
C           2.96886691181795    3.27533546003478    2.28203510923990
C           1.60701733288597    3.19485279096891    1.70134792948260
C           1.53172632042269    4.14358806409582    0.71321288939229
C           2.77451269012743    4.86663350743080    0.67384877626491
C           3.61962351467048    4.37557510824854    1.63993786458956
C           3.05449007784988    5.91450985642921   -0.21483184929261
N           3.27997068924211    6.77212007140408   -0.94349153529803
C           0.56480765187355    2.37140160823942    2.19363722786677
C          -0.58539114135999    2.09176994821229    1.51873628914370
C          -1.64169443799784    1.30769803227920    2.01994717265690
S          -2.95358631224039    0.83200249273107    0.95999115248013
C          -3.82515431562303   -0.03446361682382    2.19822289082945
C          -3.09348008439267    0.01193820777861    3.39975333753976
C          -1.89141003599447    0.77945507368511    3.28420476389841
N          -1.30192671872912    0.83336116706405    4.50739243607755
C          -2.08733708254556    0.13743677985625    5.38623423346535
N          -1.74536511279695    0.09300182404061    6.74975592668134
O          -0.68944074795509    0.61204709749117    7.06326132399102
O          -2.51779965481218   -0.45826528331787    7.51006062778589
C          -3.18497866060985   -0.39873385235232    4.74707593422638
C          -5.11538220356277   -0.53714436463045    1.94108724288948
C          -5.85832872829620   -1.19180802589447    2.91018903517987
C          -7.18927166095382   -1.54950302065618    2.79067089297473
C          -7.89184490438252   -1.41846215052101    1.50853250927963
C          -7.34383763066188   -0.87279569678627    0.40068798912656
S          -5.75856903612683   -0.21575110161160    0.33664706076634
C          -9.18543035418265   -1.96820229337994    1.72483985627190
C          -9.30318097567480   -2.38820682067417    3.05210003082408
C         -10.58516006190310   -2.90655434921716    3.33482528957220
C         -11.38707117197627   -2.87092879794612    2.23882114811883
S         -10.62882367735763   -2.20548512281022    0.83194228374695
C          -8.07768764245429   -2.10795255086253    3.74833066257545
C          -7.94325475944566   -2.22783399651762    5.14568003700801
C          -7.00003726936871   -1.60127716751739    5.90772781669283
C          -6.96538344471229   -1.57614788478818    7.31469097634980
C          -6.25423540566744   -0.65216936423856    8.10013008357548
C          -6.32249633850565   -0.97418587199012    9.50786619407586
C          -7.13705317273028   -2.11498976847192    9.73278974263316
S          -7.74605005034347   -2.80315985933637    8.24757825341737
C          -7.43615657124613   -2.65039830611496   10.96956851219984
C          -8.34561842914405   -3.83303659453209   11.11167710345403
C          -9.79266684799805   -3.37573223308873   11.30627437619475
C          -6.89478087740822   -1.98791642426341   12.07450266212822
C          -6.08762531010401   -0.84633480885291   11.86731427470829
C          -5.77755212005065   -0.31407200441724   10.62187664687413
C          -4.93253291774028    0.92557405171053   10.57083193102228
C          -5.77431294008093    2.15703779583295   10.23187049827748
S          -5.54253266406190   -0.19257985629797   13.39353703187868
C          -6.38395099374112   -1.42755548176116   14.25762529232978
C          -7.04314506363594   -2.29208278730704   13.45954532318442
C          -5.54748326565998    0.44698085619669    7.55507966726058
C          -5.71822396824544    1.19067896884422    6.41211551817283
C          -4.58579265024965    2.02964744776146    5.96256040565253
O          -3.55662119254341    2.25935217678163    6.56575615176499
C          -4.91717986004638    2.45330355665391    4.58749522380604
C          -4.15530120356533    3.15117965077259    3.69753346635229
C          -4.64184391741798    3.34876842592734    2.38583706702196
C          -5.91895546427574    2.82780502387514    2.03066437787825
C          -6.38164584150346    2.99685710861318    0.71075941501490
C          -5.61124467754516    3.64601993569452   -0.21361137957297
C          -4.34997252772454    4.16162213217866    0.14039963951844
C          -3.87680890067770    4.02269060935790    1.41540760923833
F          -3.60816314892131    4.78504742882825   -0.78540931246527
F          -6.05246668094623    3.79304907042274   -1.46989048368207
C          -6.70158821448808    2.14148591132679    2.98805289600306
C          -6.20749568884911    1.95810878404485    4.25149445640137
C          -6.77309957941379    1.30940165763036    5.43189152273814
C          -8.10262439417964    0.99959544653597    5.60071298161282
C          -8.65643665756652    0.66638896061324    6.85044946814651
N          -9.14149140072209    0.43989800166026    7.86614063474557
C          -9.04480567267155    1.00483463444191    4.55746758987954
N          -9.82825447823074    0.92564541968168    3.72054620849142
H           5.45354577874472    3.52010867902060    3.68114508544165
H           6.04978089373796    1.39184368084507    5.14038726308269
H           2.27863195929380    0.56715786286441    3.20565873657640
H           0.68468717308683    4.37500605183176    0.09548921717299
H           4.62413898756007    4.70360230598743    1.82303823287799
H           0.70734289160054    1.95167899889042    3.17727826369332
H          -0.70537129084549    2.45190190771999    0.50682472276371
H          -0.48964897685494    1.35008281862794    4.80758103539581
H          -3.91603799501319   -1.00692747922603    5.23786482967306
H          -5.32974351430465   -1.43559396039753    3.81383235251559
H          -7.87950827676258   -0.79179455428707   -0.53187038781578
H         -10.90153408511453   -3.28371305170303    4.29000072394438
H         -12.40558050209265   -3.19739509594912    2.16062410127995
H          -8.73660003549573   -2.75799667844169    5.65826575224317
H          -6.25532548013794   -0.99222425733863    5.42318151048751
H          -8.03420742131379   -4.44167537729825   11.96176024238971
H          -8.28016094262034   -4.44854327559058   10.21120617992749
H          -9.88310847085426   -2.77287810861185   12.20691186371685
H         -10.45176253400568   -4.23586568488415   11.39403197686040
H         -10.11461458410175   -2.77542545418604   10.45861911646443
H          -4.47849695492963    1.07515043264177   11.55295080197924
H          -4.11185781816617    0.80476517430382    9.86377461811834
H          -5.13501164802567    3.02918766702791   10.12255576942914
H          -6.49069824895492    2.34685823327492   11.02787738993041
H          -6.32816662705025    2.01436358705368    9.30652180775749
H          -6.33261051002015   -1.42793666736262   15.32915064411378
H          -7.61968598577048   -3.11909097632724   13.83200730267650
H          -4.64620484197087    0.72318532487745    8.08795506511157
H          -3.18879228468832    3.53823101258715    3.98306773833817
H          -7.35043635107456    2.61774534419084    0.42517883593858
H          -2.90866200638110    4.42322246881829    1.67312159948348
H          -7.66808440552577    1.76425857913361    2.69359783975182
