98
 SCF done       -184.159307336938          0.000770961570
C         -10.78710883734323    9.77700805974435    0.55228947305040
C         -10.02883522615234   10.04789221862784   -0.52554711036746
C          -8.84142536035730    9.19110548543635   -0.47406496823505
C          -7.83992224894798    9.20485142240901   -1.44363071758570
N          -7.06971994767287    9.19033859394306   -2.29816738823412
C          -8.93343037734513    8.37916145986855    0.61848952657767
C         -10.17708880090266    8.68268697979656    1.29335503143650
C         -10.73783866765189    8.07753571376561    2.39305424726134
C         -10.39044074650609    6.79329623171991    3.05440783767302
C         -11.02258724337946    6.78418118018705    4.27127059341330
C         -11.82720933157547    7.96974945182023    4.38423978535320
C         -11.70157942029888    8.71414135610196    3.23437222833329
C         -12.61650131196747    8.28983795491954    5.49778369287123
N         -13.26282076392218    8.54251719655844    6.41196773001804
C          -9.70115386449815    5.68079713355604    2.50804259680694
C          -9.45271735841759    5.48938262515646    1.18761311771004
C          -8.72803006979189    4.41212260760440    0.60757447759481
C          -8.28239338207104    4.51922496443659   -0.69393009634671
C          -7.53218269934874    3.56761734493671   -1.37355560791378
C          -7.12830647922258    2.32176058652455   -0.70849462326039
C          -7.46382334252540    1.99970749902098    0.56108095007341
S          -8.40007320562949    2.99873357443775    1.59286394916451
C          -6.30693560982834    1.63912607088314   -1.64790502681913
C          -6.16973165309083    2.41752527206607   -2.80091361271300
C          -5.34161752300005    1.80048616389114   -3.76540417378039
C          -4.88174534129343    0.59964695427580   -3.32948435249539
S          -5.42926893439985    0.16738579483473   -1.74226099176294
C          -6.94223679246310    3.61801518639517   -2.65777211969667
C          -6.95867483513045    4.67203292227363   -3.60907879620688
C          -7.91179540885779    5.63276009653477   -3.68707063127326
C          -7.86416155485681    6.85749158562013   -4.43311141867482
C          -6.87380290909493    7.23590820750567   -5.35418209309269
F          -5.92624420899063    6.36052249950715   -5.72669795044812
C          -6.83917233572232    8.49819268625366   -5.91355529205472
F          -5.87527406945464    8.77381680701560   -6.80936092463685
C          -7.78441439188471    9.48240544125068   -5.60074301823522
C          -8.81055319941904    9.09418710773765   -4.73675058336432
C          -8.84165229384743    7.83494533087045   -4.17340434474819
F          -9.82169239890871    7.55247434211912   -3.29375328728205
F          -9.75631069752302    9.98279202689129   -4.39399959349349
C          -7.71764586840742   10.82505945017614   -6.14750880708743
C          -8.74140632320574   11.51870744004566   -6.70927807046038
C          -8.21131276618604   12.75835739885862   -7.24714938544017
C          -8.95343425221726   13.75314305463545   -7.89530595225541
N          -9.53736377961539   14.56894291351876   -8.45359467714198
C          -6.85934856912603   12.78942639590067   -7.04257419610194
C          -6.48414569202940   11.61344263852767   -6.30998509504496
C          -5.26583631515230   11.36124062709851   -5.72845199995088
C          -3.94512858097889   11.92864897351440   -6.11252877107182
C          -3.04062285822106   11.50727859537190   -5.17175446887083
C          -3.72594547427892   10.69223501472620   -4.20267444235361
C          -5.04743815919147   10.56682169223868   -4.55939525887233
C          -3.11579813918243   10.11931910259793   -3.07797535796349
N          -2.59820043221400    9.65253173350228   -2.16624465525293
C          -3.69126249934214   12.62240082008491   -7.32240345803000
C          -2.47249972620126   13.07535615610232   -7.73053137178011
C          -2.24638840733398   13.74850744248725   -8.95818473278992
C          -1.08964872757518   13.70638507548088   -9.69247207819980
C          -1.34924531307009   14.27675738141305  -10.98673136590509
C          -0.39091837476106   14.40488883806393  -12.00246938678689
N           0.39929621900575   14.50210732593400  -12.82897000495928
C          -2.66788314290531   14.66561737549888  -11.06423104241004
C          -3.26373116332002   14.44748873572414   -9.78445266232154
C          -4.42946871016241   15.01176892929826   -9.33302225116764
C          -5.56562943940635   15.50241002649713  -10.13405487160262
C          -6.42847211908335   16.12087839070841   -9.28611865195676
C          -5.87111649949168   16.08469127924275   -7.94201851643677
C          -4.69955322974615   15.38095785105078   -7.96355127335802
C          -6.46867664414651   16.66171275722225   -6.81434449050759
N          -6.96024806441054   17.11790131871402   -5.88254506225125
C          -5.77180989022381   15.21694048095870  -11.53585951030325
C          -6.57864011377051   15.91442517209807  -12.33021773118729
H         -11.73515667344410   10.21671102288010    0.79264777210249
H         -10.21803312593481   10.75751566534226   -1.30878769116702
H          -8.18060383294328    7.70143993411057    0.97281758065043
H         -10.98920180439107    6.00111585058222    5.00555120779901
H         -12.15209133296492    9.67079920359742    3.05356342082089
H          -9.41812350919298    4.91054630206176    3.21585520324058
H          -9.81248252445741    6.22021066757587    0.47705190747742
H          -8.49676345346843    5.45788189510229   -1.18183758258016
H          -7.14675680502141    1.07982002685350    1.02672391988977
H          -5.09829157574857    2.21879921807959   -4.72488712082992
H          -4.23814227281622   -0.08482981754972   -3.84657903902527
H          -6.11644357753663    4.68394419310776   -4.28547963060274
H          -8.80926964663351    5.51748677267797   -3.09859870827694
H          -9.76804923413100   11.21471590470408   -6.78789717209050
H          -6.22285674216705   13.62467843283905   -7.25297112310638
H          -1.98592493829937   11.70560247510503   -5.14414775487575
H          -5.80186299539898   10.06673005682959   -3.98278622146267
H          -4.52518892553671   12.74235091890978   -7.99714213281176
H          -1.59129926306723   12.84521894468480   -7.14665133049914
H          -0.15589862038178   13.26377521830645   -9.40025115753874
H          -3.11975980112177   15.19019936074089  -11.88382695043259
H          -7.38781706968026   16.54077477208484   -9.51900411059074
H          -4.02855793876249   15.23326417106854   -7.13876319667598
H          -5.23437468912430   14.36396657771736  -11.92928194309668
H          -7.11785502950262   16.77619931131865  -11.97651776731828
H          -6.71839871851737   15.64947839748142  -13.36358729369830
