108
 SCF done       -194.837373826486          0.000430334834
C          -4.10914133138489   16.14912242462381   -5.37786457330251
C          -4.42120206944143   16.70015153691969   -4.19465458872382
C          -5.35989447264008   15.80454505237426   -3.50502623222703
C          -5.86953763256406   16.03745323464335   -2.22154879246009
N          -6.28480699720560   16.23797769674217   -1.17031357709004
C          -5.62431464837882   14.74138829743649   -4.31010993218501
C          -4.85340355306203   14.89933076948400   -5.52736100485152
C          -4.76787637780397   14.05568019079795   -6.59823091352958
C          -5.53091784592655   12.81401701782068   -6.86266154882112
C          -4.92440753739995   12.18255400479139   -7.90877400861668
C          -3.82138631177731   12.99926097637326   -8.37390746608794
C          -3.75279456123435   14.13524289005292   -7.61744250804145
C          -2.98600053546122   12.65613075035632   -9.44694633239996
N          -2.31055311026452   12.36863529156033  -10.32890258822688
C          -6.73949248906832   12.42404885237828   -6.20748500622033
C          -7.18844695485067   11.15130244063719   -6.12813293606670
C          -8.43323909572610   10.79330173294130   -5.52143992650977
C          -9.56419327399307   11.55479922034205   -5.48262705680102
C         -10.62997974979194   10.77659278902946   -4.88953941973378
C         -11.93262605050971   11.24894092645610   -4.67656319003364
N         -12.99827879685992   11.63904844421461   -4.50572928297305
C         -10.15865847399821    9.52987844736668   -4.57837130957257
C          -8.75936638880035    9.48518768211919   -4.90442363725984
C          -7.87821930974472    8.51376181031211   -4.51178728621469
C          -8.22481326957644    7.21401436834896   -3.88840655081461
C          -7.07942283365456    6.68970329529053   -3.37185859275512
C          -5.98141552441560    7.58521281691972   -3.67278936436957
C          -6.45346088110066    8.65628475142676   -4.38134372897208
C          -4.65163158636384    7.36397533356153   -3.28844544012097
N          -3.56384251148528    7.17574328392587   -2.97495823839263
C          -9.51421205831536    6.58970383878996   -3.88600486563989
C          -9.96237571264651    5.84937299102923   -2.84861493552920
C         -11.22089536948492    5.19536114481155   -2.78040115950725
C         -11.82481292591730    4.72495911381142   -1.62630008105794
C         -13.07199768768449    4.15971600258269   -1.87806951433593
C         -13.41060936171309    4.16465941591414   -3.24339312022561
S         -12.21266707013787    4.90963521427434   -4.20513228792416
C         -14.68055047164790    3.54795840053530   -3.39317696528632
C         -15.15814987302623    3.19391334678117   -2.11936146751956
C         -14.16293630806556    3.55898902253286   -1.12633077721829
C         -14.23601519390660    3.37963292252967    0.22340763249973
C         -15.36106532873733    2.79356007924448    0.84147087510184
N         -16.27577812971809    2.31705070862611    1.34200378875573
C         -13.19217712081559    3.76933612470312    1.08930423915075
N         -12.34443634683509    4.08675177844625    1.79268492380122
C         -16.41507042316837    2.58475946528032   -2.15867751544538
C         -16.87268326714439    2.42698910547901   -3.44775780975827
S         -15.75623027021952    3.09136635525286   -4.63870490270553
C         -18.13342334632291    1.86926843270994   -3.84218669037510
C         -19.33370120352897    2.13784554666081   -3.26106897069850
C         -20.37065424181677    1.46937743838562   -4.02176727586604
C         -21.73600852801414    1.51461410710297   -3.70876355257044
N         -22.85499430109256    1.56363519982056   -3.45907626333487
C         -19.80371474030778    0.81287928195896   -5.08029005883528
C         -18.37797189137609    0.97776699755126   -4.99403074969828
C         -17.43053719181170    0.23703254477333   -5.65433672286675
C         -17.62361811746129   -0.60912219444780   -6.85754681460577
C         -16.53591725891237   -1.43419506795967   -6.95225128260477
C         -15.62088607064377   -1.11791942087651   -5.88581860684311
C         -16.13340086664480   -0.08584062368351   -5.13909387007861
C         -14.40245368071188   -1.77267915485335   -5.65712954682618
N         -13.40191485094665   -2.30472036603181   -5.47617942131237
C         -18.64849845506133   -0.50983675889790   -7.83814318381344
C         -19.39595468930631    0.59429167248024   -8.08763054430176
C         -20.41969843427461    0.65381547841598   -9.07632165644565
C         -21.15801065365780   -0.38889838251558   -9.56227507357333
C         -22.19723576001364    0.13695964974238  -10.41671353513274
C         -23.12554180990920   -0.65651896363035  -11.10666293290173
N         -23.87981887476197   -1.31624478243996  -11.66544944199460
C         -22.12250847483318    1.50510925761561  -10.43412451518122
C         -20.98549184954574    1.89913778200736   -9.64964541202054
C         -20.43691124940888    3.15087438020806   -9.59742537224511
C         -21.06809387029460    4.41945112164145  -10.02260705069047
C         -20.11688130581896    5.38431428078945   -9.97922034167147
C         -18.86249180312283    4.78747637563459   -9.53917645538521
C         -19.06692524318808    3.46542187422326   -9.27128000866048
C         -17.65151696054098    5.47924774471515   -9.40980115026651
N         -16.65904614463885    6.04428405785468   -9.29248679508508
C         -22.47735210530574    4.60680219222626  -10.29291301113252
C         -22.96059725919335    5.53671765912568  -11.11063293656898
H          -3.45817629221561   16.55973341437856   -6.12436177678923
H          -4.06834655260969   17.62530767697010   -3.77928807653732
H          -6.23464513907102   13.89709565636410   -4.05675985429491
H          -5.22395445074145   11.26360091870455   -8.37661104760207
H          -3.02458132443441   14.91656450068466   -7.71374485265122
H          -7.32120487432163   13.21136539253243   -5.74992190378408
H          -6.58603140104352   10.34919205903833   -6.53061645456755
H          -9.69233664702772   12.54903481651659   -5.86732677348267
H         -10.70809509006982    8.76105163494687   -4.07201899407804
H          -6.96600947652074    5.74679369471858   -2.87118655260352
H          -5.87540306082542    9.50729280527913   -4.68274872539420
H         -10.14133653721880    6.72701465956951   -4.75798128910856
H          -9.36244332995210    5.78281941722092   -1.95039508318158
H         -11.37036373340442    4.81224481093950   -0.65620437342365
H         -16.96011172590154    2.23422192290925   -1.30132101960122
H         -19.51408605299824    2.76027131527817   -2.40528815026925
H         -20.31730509359224    0.17891663854185   -5.77592476311684
H         -16.35144319705414   -2.17162719540685   -7.71075889773611
H         -15.70469687463202    0.29892280431302   -4.23444847501412
H         -18.74356536562764   -1.36475444768236   -8.49534487875496
H         -19.21930948670123    1.49253556107816   -7.51259404427057
H         -21.04644043376736   -1.43106007313258   -9.32879153428203
H         -22.72829178249830    2.16030623713951  -11.02886453747317
H         -20.23934193900497    6.42971251084896  -10.18972419864049
H         -18.30896366488174    2.75739574458860   -8.99790072493146
H         -23.15338598673363    3.94960262934199   -9.76155468379356
H         -22.31401825009241    6.19210884160282  -11.66925793846891
H         -24.01860384433284    5.65986731447323  -11.26223214415864
