78
 SCF done       -173.672485928477          0.000660319258
C          -3.07273182335990    6.85146305537708    9.09213506183866
C          -4.25961805482663    7.68485063125663    9.17142458623968
N          -4.97816631967593    7.70207484480583    8.07850523204126
C          -4.32918196349924    6.88419457182684    7.20938559137423
C          -3.11528168463075    6.31662590377304    7.84533633465555
C          -2.41112206054779    5.48373713847205    6.89051104717694
S          -0.92754931265558    4.80428025921151    7.09640812488945
C          -3.22151673913449    5.51577808164106    5.71210092106337
C          -4.37342974766138    6.41736318688559    5.92384657296569
N          -5.09600776959951    6.54655822551343    4.77656130470380
C          -4.46798276467434    5.84872327056407    3.87844246624549
C          -3.27428447880963    5.15630881337720    4.37632636904200
C          -2.45036515890810    4.26880909944063    3.63229920710883
C          -2.22933146804343    4.40857192327564    2.23854648280335
C          -1.34345199663782    3.54366078278184    1.52771341462257
N          -1.14185590446773    3.74954505458940    0.21444656440097
C          -1.75253935185354    4.72601581232302   -0.38415864467323
C          -2.62218971081499    5.58556187254879    0.32260671549699
N          -2.83861248155217    5.42310972267307    1.58970965129722
F          -3.24818578323019    6.58928271118448   -0.28644215902353
F          -1.52363189422729    4.88569279806745   -1.68654355054216
C          -0.63587513041914    2.45458137212827    2.15112112070930
C          -0.93677099375423    2.26667822139698    3.53177358484960
C          -1.81037811680321    3.17091795121470    4.24576334589257
N          -1.99375040739923    2.79530078252820    5.51149538917480
S          -1.16084615810188    1.45498863459954    5.79212186813838
N          -0.52019846592472    1.28267101082681    4.31898625055208
C           0.24095771266069    1.73484361543223    1.33559220490147
C           1.11266380951271    0.67984945960853    1.56616208676708
C           1.42636075484669   -0.08329171458347    2.70216097000125
C           2.38458324443156   -1.03905834138867    2.48321900028372
C           2.86900146888950   -1.07234879311366    1.16559734963423
S           2.07811608489551    0.13332234395226    0.20072643257775
C           3.85257257437751   -1.91916724730166    0.64136047445651
C           4.55305194472311   -2.92468573406508    1.32450335057982
C           5.46833766726851   -3.56449903131804    0.53401544774421
C           5.52700053658361   -3.08981328616362   -0.79451327415970
S           4.36279970230012   -1.81033264627224   -1.02174530178364
C           6.42909366946893   -3.60201013460798   -1.71521521161898
C           6.69609503424017   -3.27814741444394   -3.04367949314660
C           7.75598319561038   -3.97626035168131   -3.71651101325726
C           8.12453770526085   -3.69938184272881   -5.06796856842544
N           9.14786596112926   -4.37763893789698   -5.62885906976368
C           9.76608354696636   -5.27982329644752   -4.93338996959287
C           9.39395224324739   -5.55937601653204   -3.60012318814532
N           8.42185886384087   -4.91726578727896   -3.02604285282211
F          10.02597701307771   -6.48588755608031   -2.88115638375817
F          10.76529530059245   -5.93337133593323   -5.52116783287633
C           7.48109999966384   -2.68858370792600   -5.83028583742989
C           6.41201806242660   -2.02263438250670   -5.19160479098363
C           6.01751209715570   -2.31381256732516   -3.83502152196763
N           4.95771546886525   -1.60739521262032   -3.46979151265953
S           4.47778646100511   -0.67818397644133   -4.70490562723521
N           5.60414057720414   -1.12462539980489   -5.75713910393609
C           7.86634417547881   -2.36487087840666   -7.15937914327024
C           8.41450442161661   -3.29630304878046   -8.15197148666716
N           8.60509705714202   -2.77609641279956   -9.32702982044666
C           8.24380661795034   -1.46693450573453   -9.22018763192837
C           7.74736647328578   -1.17604137685756   -7.85855180739591
C           7.48219243809760    0.22363391286868   -7.73135802152406
S           7.13818098052336    1.08065522663032   -6.37039400906331
C           7.73871349873189    0.76964574169929   -9.04926227883811
C           8.22018734534139   -0.30854051893844   -9.94775422430586
N           8.50242349956184    0.19426491656642  -11.17784974590752
C           8.24005796843129    1.47313986672180  -11.09710323826798
C           7.77063952586565    1.90508430431928   -9.79180312562629
H          -2.35253818472257    6.71490906028199    9.87450512529578
H          -4.56426903956620    8.25479475087164   10.03184721573243
H          -4.84010318046348    5.78016432337164    2.87283889423221
H           0.24562689224619    2.10289271885516    0.31575166324255
H           0.93516914422769    0.09226551085923    3.64094787497306
H           2.74410747160991   -1.70847697110612    3.24349789708929
H           4.38156565653195   -3.15874045845312    2.35940521980925
H           6.10699419157033   -4.36116702634430    0.87219559950258
H           7.06500567147317   -4.39134595369711   -1.33100945562209
H           8.62282231286630   -4.33417705429654   -7.96781860068668
H           8.37438321384507    2.11119521882866  -11.95313301637499
H           7.51191688985065    2.91015221645494   -9.52230350045946
