76
 SCF done       -149.236313669637          0.000518129493
C         -10.33828900472152    8.17756033268811   10.73853016788371
C         -10.50792868385465    9.24098528823835   11.73650765083481
N          -9.41983318830697    9.89386814373733   12.00012022025972
C          -8.45135384224141    9.32149746862350   11.21169607381393
C          -9.02581003062611    8.22794143391060   10.41928410799319
C          -7.97226919964344    7.64799493376762    9.58653683159050
S          -8.31697087475525    6.38719544847040    8.45583135411764
C          -6.83157151324225    8.36410255500634    9.84431402180739
C          -7.13576308029347    9.42677627162293   10.86610205321773
N          -6.04780661293422   10.19410251881626   11.08877592367801
C          -5.11095041389776    9.74155168566138   10.29516594677247
C          -5.47654975232487    8.59640598092450    9.48571289440784
C          -4.63250680390526    7.97120783428465    8.57658075342070
C          -3.37342415397210    8.53724870150869    8.08224217010753
N          -2.76072278827183    7.81470728718944    7.19111193793959
C          -3.51293228905001    6.69408464902107    7.02731434443300
C          -4.71924531073147    6.74358734541859    7.89240382079825
C          -5.43046563207918    5.55528852473846    7.74139081724646
S          -6.80645867812066    4.97115740957687    8.62670169186716
C          -4.71039000552519    4.76720408587247    6.79723658682108
C          -3.52874660499143    5.49665875584692    6.36042996552631
N          -2.81449200339843    4.75236972632296    5.45029072665112
C          -3.46779203698224    3.64841347016845    5.29382741276040
C          -4.69411863657565    3.54529801168293    6.11732998763555
C          -5.60783193427068    2.50658212981345    6.24014941304157
C          -5.62628121825610    1.28588941597151    5.58367678047442
C          -6.56784993327642    0.26183258884016    5.80907866143741
C          -6.35653007999199   -0.86982868573213    5.06638437641783
C          -5.24169700863452   -0.78049800563505    4.21816224715034
S          -4.47588857882745    0.77496896492244    4.37288544329443
C          -4.71822441413600   -1.75385494944884    3.36630747715443
C          -5.14582047130261   -3.08112173039603    3.19156768189665
C          -4.36696176489193   -3.79131620347290    2.31949810289594
C          -3.28492652333625   -3.05879123312536    1.78550134707459
S          -3.31884426169724   -1.42578921632467    2.38811575552125
C          -2.38995887652551   -3.52568897014996    0.83754920417427
C          -1.27105967159780   -2.90369863644617    0.29117415604173
C          -0.77521652838824   -3.31575678739179   -1.04524680827333
N           0.19075492820465   -2.59812612657707   -1.50312616581397
C           0.48045241281241   -1.68989858797479   -0.51682933310627
C          -0.40956294346660   -1.85834225424698    0.64104278354841
C           0.03270440500188   -0.97186029465270    1.67304323956059
S          -0.41783292642527   -1.05046225882262    3.34824412995223
C           1.10169229677047   -0.23833643932967    1.15160555275961
C           1.37619940480667   -0.70101204833185   -0.22694713406639
N           2.46218202731222   -0.06188923685731   -0.74436617669443
C           2.89257347960148    0.72919308658692    0.19012019741173
C           2.10013981180165    0.71376345630007    1.42717898480898
C           2.36194930070040    1.52222456411809    2.52804503422005
C           3.58477696225273    2.28357772137859    2.70718897304758
N           3.63645367495040    3.02148823585865    3.78510480610793
C           2.45536972074227    2.85225003347222    4.41666664354182
C           1.59176381031582    1.87641151866006    3.66559891092983
C           0.38581225127427    1.75409020670861    4.31160545753106
S          -1.03441823037051    0.85704068801946    3.92569725722931
C           0.43492533376204    2.64836405728924    5.46482859354415
C           1.74993825816249    3.30556384783305    5.49266064348315
N           1.82587043933755    4.16666050474456    6.55827865741746
C           0.67703658858869    4.08107575078073    7.15276487010480
C          -0.25323382268569    3.13840161446426    6.51976396644407
H         -11.11573190417617    7.53414984710894   10.37497807185928
H         -11.43343622378132    9.48657014518654   12.22582850492412
H          -4.14113142267600   10.20873768640839   10.29870359979231
H          -2.96526984639135    9.48700194955031    8.37964875479232
H          -3.09794693315462    2.89334911427117    4.62292749901025
H          -6.40867038687006    2.66400658776395    6.95388475843453
H          -7.36757191850855    0.38025670575737    6.51859747657741
H          -6.97227494614230   -1.74934164522696    5.11707066745643
H          -5.99831379662136   -3.48348213269591    3.70786528384059
H          -4.52932205749747   -4.82299274461646    2.06254180451730
H          -2.64194174592168   -4.48858419486910    0.40606975188860
H          -1.19887149930530   -4.11877137275737   -1.62283504139198
H           3.75371752586518    1.34972267000449    0.01696753385285
H           4.42906614212138    2.26003417425339    2.04020151069084
H           0.46033503634941    4.66746614611697    8.02746917728004
H          -1.24707079441088    2.92581247891789    6.85974945863936
