72
 SCF done       -138.501437648884          0.000875909232
C           0.35568808212025   -0.97806719266812   -1.32666270517053
C           0.35482888307261   -0.40823550482014   -2.56557623803624
C           0.84229198327809    0.92393569999501   -2.55247332939403
S           1.00434760707115    1.97176522366102   -3.95168844469657
C          -0.00450457837618    1.08572048649272   -5.18967619204565
C           0.41883656024536   -0.35827983832615   -5.32286236889719
S          -0.23491034294517   -1.34400406071336   -3.93791598014432
C           1.21594432550235    1.34132757507546   -1.28082995867780
S           0.94319448713123    0.07530544868053   -0.11271994651489
C           1.77097384563860    2.59017748527901   -0.88983316209632
C           2.04767541474973    3.06383100364085    0.38719935657475
C           2.64665818901422    4.34439629568378    0.39658175507923
S           3.12740237453235    5.29288866996502    1.79819413873311
C           2.89431482426659    4.13364619480066    3.18313588490297
C           1.57204357434873    3.41512627990001    3.07975491458600
S           1.64952479467246    2.10850803644860    1.80907966285426
C           2.80600176758092    4.87113405944567   -0.87617176447449
S           2.23029694160454    3.76322131545752   -2.08744592628252
C           3.34340470780257    6.11943947929141   -1.29365396605399
C           4.13954832429048    7.01272240455990   -0.60414490360138
C           4.48128542342200    8.12044737087834   -1.38231635269512
C           3.93532283079948    8.07998033691742   -2.67401694214841
S           3.00931353581797    6.66820888266623   -2.93470880978548
C           4.34010585683095    9.24772335537337   -3.37223176057336
C           5.15095926677484   10.01691218987683   -2.52408334932538
C           5.26640862640155    9.33648983985795   -1.24441613287989
C           5.96469633296872    9.74856924868741   -0.14723164825046
C           6.69599277656181   10.95460149680038   -0.12387809862533
N           7.29612960291513   11.93129081148792   -0.08495322299599
C           6.00822663366396    8.99834473993481    1.04682991029816
N           6.05722080269448    8.40122016185723    2.02514222818570
C           5.60957700072004   11.19435827991914   -3.11827636445945
C           5.14802475698013   11.33734357894187   -4.41204492477541
S           4.13242691004858    9.98211556077070   -4.90040533114343
C           5.35833238072189   12.39190904566049   -5.34218027610138
C           6.30783736833670   13.40244332873450   -5.35294398719298
C           6.18863554622680   14.25297929833724   -6.47601284375196
S           7.24265022082888   15.61017136068869   -6.85105682377843
C           8.72436292763757   15.16293706311298   -5.88600873844887
C           8.38568025811221   15.03998371099674   -4.42125176458785
S           7.51246610600579   13.47983356194934   -4.07310681093110
C           5.13173050826847   13.91956264873708   -7.31471040101785
S           4.30188837878558   12.51303594373661   -6.71928373782753
C           4.68598414912118   14.57316788063370   -8.49575695688581
C           3.69527042618170   14.17112430711152   -9.38310123542564
C           3.49601655847958   15.10272798669031  -10.43433319739381
S           2.36405840519345   15.00988291886013  -11.78178976152213
C           1.24177643892367   13.70028592764183  -11.19612642865608
C           2.02363287190701   12.47105118151267  -10.79683329258618
S           2.80616926114645   12.67384336633204   -9.15884055759844
C           4.32736623542480   16.17985580005697  -10.34292854248795
S           5.37011884053581   16.09970892540008   -8.98866302990356
H           0.02745515394796   -1.96582641762543   -1.07500521742605
H           0.17221281343630    1.63588718351464   -6.11389540314840
H          -1.05580887108394    1.16747387368567   -4.91230759020634
H           1.50484418254632   -0.45503770983801   -5.34611157228349
H          -0.00696329481630   -0.81344848729786   -6.21708797007365
H           2.93882556396131    4.76603097177273    4.07027093402067
H           3.72653958528600    3.42924215647811    3.19700872387973
H           0.75887676884527    4.09923528178504    2.83563230487121
H           1.33885062735439    2.88341764448160    4.00193161950429
H           4.47619307536596    6.85297978198185    0.40192251234097
H           6.22447982757594   11.92130372508786   -2.62379253533251
H           9.42074773060062   15.98238415787972   -6.06291517058572
H           9.14043119963772   14.23661423831824   -6.28306495378507
H           7.76589810248137   15.87285783560259   -4.08794100484837
H           9.28350582469740   14.98577260390663   -3.80510831492949
H           0.58737944726670   13.49362077100767  -12.04306458387119
H           0.65065789881098   14.08418138901603  -10.36400030819728
H           2.79588304667610   12.23616364957061  -11.52985086260180
H           1.36748734754095   11.61003498382778  -10.66986360956805
H           4.37777496581696   17.00990319483653  -11.01752863915226
