101
 SCF done       -192.821973409129          0.000495357425
C          -0.81061853732706   -0.92873100986686   -0.66068844631208
S           0.73387445165660   -0.20371488420950   -0.84015000712941
C           0.10175116996898    1.36921676282319   -0.41848654812630
C          -1.25548256460906    1.28997777683135   -0.17575162800226
C          -1.76647265124559   -0.02726160538847   -0.30769942293839
C          -3.19649768893196   -0.31872073750217    0.01663156894967
C          -3.45185617072213    0.04295882062841    1.47090954000083
S          -2.97785132906283    1.78845874666562    1.79782284732313
O          -4.17485366865445    2.55976976565599    1.99048672509624
O          -1.99855828033476    1.79571941451693    2.84799456768363
C          -2.16641635800766    2.36822655129852    0.24998661281493
C           0.94329328294472    2.51584061249281   -0.36557453429877
C           2.27983248833271    2.47477780686191   -0.56106739757652
C           3.15507828602631    3.59319528791290   -0.51563604268300
C           2.87279880913534    4.93673867363373   -0.34302745461883
C           4.02531303824313    5.72347487455428   -0.35842670259859
C           5.19865279523621    4.97249464092044   -0.53895685874292
S           4.87999529364998    3.30484934246583   -0.69923938103449
C           6.30508379495955    5.85886991008578   -0.53654504655746
C           5.83689019768610    7.16847498915659   -0.35754240412462
C           4.38638043328487    7.12870551463044   -0.24135914140302
C           3.54257384234713    8.18552729084443   -0.06692719654114
C           2.14432556817933    8.01775909753806    0.01652553160023
N           1.00753497412956    7.88001211495803    0.07631803626305
C           4.01096715610095    9.51285560229969    0.03200718396735
N           4.38908029919500   10.59206242312011    0.11361044051125
C           6.86332468250161    8.11419489627401   -0.34128339091111
C           8.11288866297272    7.54129999982477   -0.49065624433504
S           8.00536542296475    5.79392810572356   -0.67364363080995
C           9.34769897677223    8.25066609575341   -0.54622784280917
S           9.28179730165159    9.97362438368651   -0.81286551617814
C          11.01710250449279   10.11400144964100   -0.80037635000614
C          11.59721690059508    8.87835426385012   -0.56647614124557
C          10.65950265028319    7.83050414477641   -0.43220718344720
C          11.14967674272082    6.45822333285813   -0.08780871306471
C          11.80911716845716    6.49974817558977    1.28003194258858
S          13.19752946991067    7.69355584680349    1.25010932565706
O          13.01329933672218    8.63504295375242    2.31788237285019
O          14.43554279370155    6.96440827264204    1.20663602606680
C          13.03022179422907    8.59631993406005   -0.34462048886167
C          11.57457165506829   11.40289144911785   -1.04173645810235
C          12.81743717028836   11.65874262622491   -1.51132329137282
C          13.34369648240933   12.95935256314844   -1.74012613070749
C          12.75862934892496   14.20124437872270   -1.56803946338601
C          13.62371765698537   15.24203408605401   -1.90640693468744
C          14.88410463983191   14.79231470704809   -2.33555159110874
S          14.99688674483599   13.09158301308283   -2.33061309627854
C          15.68470534910995   15.92072073933041   -2.64856756102208
C          14.93281004638315   17.08257143749880   -2.41876742114907
C          13.61077352783104   16.69639224688224   -1.94861551310866
C          12.57701841047902   17.52372813764052   -1.62300552482397
C          11.33071971497772   17.02837826151586   -1.18474248043591
N          10.31790004097822   16.62434019463728   -0.83035169490629
C          12.68325544973479   18.92807361292374   -1.70655720191715
N          12.76584508735158   20.06980615740025   -1.77234062500884
C          15.64280140054083   18.25098519548076   -2.69380986183020
C          16.93422942814806   17.99658347302402   -3.12070449193384
S          17.26387643142207   16.27053359332962   -3.19567568641184
C          17.88362877664582   18.98413749242049   -3.51145425710152
S          17.30918043103204   20.61284658798094   -3.72994631712413
C          18.88058595732139   21.15211025338071   -4.21541450461790
C          19.79505941113492   20.11413245962627   -4.20160997523763
C          19.23878473330226   18.88318906720319   -3.78475180629858
C          19.98779979395206   17.59078457906356   -3.65277498446499
C          21.48368963821915   17.77885379782191   -3.52123717734769
S          22.00240436833109   18.72126522760635   -4.97917768014642
O          23.42587693686632   18.91222629520644   -4.96801146569727
O          21.41122462791098   18.13836612618895   -6.14944370918588
C          21.21276600213163   20.31568402050172   -4.61824699345670
C          19.11898223731286   22.52708794804040   -4.56038446569707
C          18.18836906467695   23.47884754891425   -4.54864480573087
H          -0.92152807116746   -1.98222878251849   -0.82380227288549
H          -3.41810508516898   -1.37442136483028   -0.15322640684424
H          -3.85408905051666    0.27311856843160   -0.62610614176350
H          -2.84380265130225   -0.55270050770632    2.14599225462179
H          -4.50164359056979   -0.03030295498964    1.73861177492900
H          -1.66891336283045    3.30036421521153    0.49645058154811
H          -2.97902794467961    2.54757543128320   -0.45101179698582
H           0.45737100130071    3.45484641650015   -0.14479413763667
H           2.74712443222342    1.51919497920289   -0.76321128107738
H           1.87663768703141    5.31768937531887   -0.21661723528989
H           6.72502402837351    9.17319421797595   -0.21739495215443
H          11.88236456252692    6.13087695447071   -0.83065670260508
H          10.33789921469947    5.73172607241460   -0.08064851867891
H          12.24331872902875    5.54423484998289    1.55819876084594
H          11.12704278557597    6.84936835461688    2.04962555701639
H          13.47235224041521    7.94785080999209   -1.09802542418876
H          13.62833498442340    9.49102471461194   -0.21023140090779
H          10.89791596391557   12.22920285789261   -0.87296602236459
H          13.47887428184611   10.84457132028993   -1.76859425968120
H          11.75285678288540   14.33580786166238   -1.21630912942686
H          15.25523348056380   19.24810977231033   -2.58797623068766
H          19.80120374720262   16.98710543694670   -4.54740789978587
H          19.61066310894698   17.03580619236817   -2.78830889281682
H          22.01352762942822   16.83076997807862   -3.51536362334318
H          21.76795400575643   18.36895238487942   -2.65456004768372
H          21.28237326560325   20.90987765654898   -5.52712969130861
H          21.82100418019967   20.77555503139360   -3.84003281044061
H          20.13602687522836   22.76792389258539   -4.83773226687769
H          17.16861256010651   23.26616331970028   -4.27312440573626
H          18.41856060486191   24.49456603033302   -4.81524321442914
