89
 SCF done       -179.511392101400          0.000324740612
C           2.47848362050576    1.72890168588120   -3.52766587465282
C           2.17409290775404    2.13222173102719   -2.29871215069812
C           1.12188756219041    1.45788834921096   -1.54339872564553
S          -0.48556785169665    1.41708430549182   -2.22211109348152
C          -1.14889684498710    0.68049670833971   -0.80837262687053
C          -2.45648426164955    0.29782141612216   -0.43185439886379
S          -3.96909408396158    0.28898645359825   -1.27472175495747
C          -4.85628554163330   -0.27740782902602    0.14482580718265
C          -6.25310702188294   -0.48147373844830    0.00098695435536
C          -6.82573373282415   -0.16197022239310   -1.25138492047041
C          -8.22109456223247   -0.31775412881537   -1.58031458671067
C          -9.15655906958987   -0.83379661179247   -0.65738071683574
C         -10.51090952026302   -1.01552241781354   -1.05384767242714
C         -11.11383101958742   -0.44363976190520   -2.17064531874598
C         -12.43128282376843   -0.84472635471589   -2.33610736003892
C         -12.86415661006928   -1.74288811090271   -1.34604153840620
S         -11.63783212408669   -2.07731873955308   -0.20806681385744
C         -14.21752269706453   -2.07848994103254   -1.60660858845282
S         -15.45736112496365   -3.04904727854961   -0.94421710917363
C         -16.53622534688137   -2.54411291695681   -2.20481188024161
C         -15.97632748457987   -1.67550950272831   -3.09089436030914
C         -14.63665515841492   -1.39577625736002   -2.75959292472456
C         -13.53526845035916   -0.60028630951715   -3.25902206726413
C         -13.51730235050687    0.20727143277155   -4.35983535932639
C         -12.36922871210268    0.92860827067748   -4.74792149988030
N         -11.44188309672301    1.51880721965865   -5.07560780337007
C         -14.64754201493980    0.37275888554470   -5.18677382388433
N         -15.56473176844910    0.51184823424779   -5.86109453101522
C          -8.61376969134208   -1.14528976609921    0.62339417606658
C          -9.32408313787365   -1.60922917747217    1.71340790061945
S          -8.34749572642472   -1.86127851076184    3.08044432587904
C          -6.95468886417505   -1.35771792381962    2.25807211855538
C          -7.19948206128613   -0.98109349801697    0.95571684381643
N          -8.46191580034479    0.04438316803524   -2.84519436878496
S          -7.11514045733630    0.54038123006278   -3.54247413238289
N          -6.13346957285122    0.31571213191774   -2.28780507049089
C          -3.97015609934990   -0.40683939835552    1.23520958793895
N          -4.24743563361227   -0.76480651534982    2.49402629718269
C          -3.31095758736948   -0.66206896300823    3.40227790240974
C          -1.97306244503703   -0.25663953255940    3.13504002615923
N          -1.61516743296964   -0.14887766306327    1.81338238749647
C          -2.62444294900892   -0.08979483454799    0.88243493267502
C          -1.07257463267099    0.12432037209414    4.18799236856039
O           0.00549033328962    0.68862058766007    3.95156386035404
C          -1.50403821282132   -0.21902334730962    5.53954476983632
C          -2.71455700081275   -0.72087464069296    5.81997553032181
C          -3.72934308113098   -0.96400571945331    4.79925562922776
O          -4.85144967931362   -1.36247944076670    5.05277574011647
C          -0.14759556451871    0.43694125971744    0.11297403860028
N          -0.34417380361519   -0.12916391321723    1.34424809296026
C           0.77317073004392   -0.55630283627229    2.02303909520371
C           2.03979917548839   -0.06914815464185    1.57179933062159
N           2.22876986812876    0.61894521975089    0.48526120166501
C           1.15421997579231    0.84409353493322   -0.30424800405710
C           3.25884962328256   -0.34877417279243    2.39307081459579
O           4.33089207705290    0.15438761363849    2.12845289520459
C           3.06248808745096   -1.25883813672217    3.52117758922386
C           1.87608897819780   -1.79857616924960    3.82700905988766
C           0.65715627849226   -1.53249496101657    3.06563902873347
O          -0.42089584325759   -2.09706745137046    3.30681400971401
C           2.80367895941133    3.36457635226677   -1.67927491835523
C           3.71185839613702    3.01490075139092   -0.47765875267943
C           3.26164243936335    3.59776518219376    0.87247125148101
C           1.78248637910210    3.51633649927060    1.01800491561814
C           1.03771845431545    3.09701351529779    2.06839399159081
S          -0.65507757306175    3.20349615206610    1.74076021850540
C          -0.34511569105956    3.82362757054887    0.15521928367935
C           0.98398039310678    3.93151148101051   -0.08782278404120
C           1.68960811597788    4.37223566358839   -1.32192428090398
H           2.01156797489078    0.86725490940699   -3.97441590726547
H           3.22412812147964    2.23178174676989   -4.11801737911834
H         -10.59147928407174    0.23848345005442   -2.81383258685580
H         -17.53532584422843   -2.93155043145257   -2.20663601981607
H         -16.49993170660751   -1.26118423551349   -3.93296914975737
H         -10.37481327417476   -1.78536221560145    1.79957877735595
H          -6.01862927337822   -1.34039987636683    2.77951736556505
H          -0.77799553451922   -0.02593314637515    6.31681606177209
H          -3.00205938726711   -0.96338077388886    6.83304631619658
H           3.94459621761806   -1.46713581054099    4.10993416734195
H           1.75798383227666   -2.47465499534868    4.66224024126204
H           3.41714215368924    3.82024444397502   -2.46219017160183
H           4.72376767768832    3.36793694442060   -0.67913515619707
H           3.75690282970980    1.93249392568124   -0.37179214323342
H           3.55176691509007    4.65219569582213    0.93064258784618
H           3.76265988867986    3.06120547955795    1.67737673090639
H           1.34989028549320    2.70720576478692    3.01639440824064
H          -1.17010930182371    4.06384379020786   -0.48614855324659
H           2.15224832365961    5.34611527720141   -1.13815345927239
H           0.99688884516251    4.47867192747900   -2.15939029421142
