92
 SCF done       -152.291931237759          0.000512853134
C           3.39127840023274   -1.34825637379307   -2.08023091287854
C           2.35985242059381   -1.50658775977673   -1.24754326492074
C           1.17780253669927   -0.67884305983171   -1.36753500611210
C          -0.02972316030906   -0.80058191116448   -0.71883608983185
C          -0.95395540702910    0.17594851397931   -1.11392882244529
C          -0.43744447224811    1.05467540740853   -2.07463833414551
S           1.17217989773454    0.67851104159089   -2.49298122797157
C          -1.44280800597212    2.00275835387641   -2.40712813268654
S          -1.65584794325931    3.35061699943077   -3.43547680583682
C          -3.30585745529940    3.54770394302342   -2.85912564858011
C          -4.11780933977921    4.58931209537442   -3.37437001047699
C          -3.78544432363262    5.53249082954546   -4.32942037687117
C          -4.81731257517464    6.42174599600158   -4.62583596528232
C          -5.96148856690859    6.13886910777981   -3.86916043148075
S          -5.75889208031494    4.79634696680819   -2.81172637934504
C          -7.07177709035344    6.98380552943943   -4.09535915324654
S          -8.64186457026592    6.99582864185777   -3.40246498900831
C          -9.09451940722140    8.37445497158027   -4.38368050784832
C         -10.35304876848197    9.01123002452935   -4.36551681352622
C         -11.46471011912536    8.73527985535183   -3.62739267215847
C         -11.69520120678879    7.71817909249604   -2.64962557387428
C         -12.92510861740679    7.72912230904278   -2.10185149231003
C         -13.81515653763551    8.76495156579229   -2.58782791998172
O         -14.95014943583716    9.00591523492627   -2.27983630058659
S         -12.91212777606794    9.72337777433366   -3.82299470566160
C          -8.03252724875509    8.76384822405109   -5.19414577101004
C          -6.88371420764046    7.99612849959885   -5.04888150493110
Si         -5.14457086292850    7.89283046880572   -5.74122744207847
C          -4.09163683356386    9.38200958991028   -5.31935613582921
C          -5.10144333095485    7.45833369642091   -7.56165370328758
C          -3.64387105242720    2.59822579278814   -1.91290709676116
C          -2.59086906257360    1.72003024621207   -1.65400566721419
C          -2.32128747828394    0.55856336423238   -0.81512771366091
C          -3.17693380017640   -0.04182710221270    0.06208866245836
C          -4.49051604016325    0.42587872822240    0.27269802792617
N          -5.55904073745093    0.80356558220101    0.44802381659201
C          -2.80025372201460   -1.17404605878948    0.81371714099043
N          -2.48726347101528   -2.09516448505550    1.42140575570142
C           2.30909796458857   -2.59877857311744   -0.19731502477438
C           3.69346349602796   -2.95985755049407    0.38217645452577
C           4.27291824438508   -4.29586199225773   -0.12150872963151
C           3.88789525269914   -4.55429571634635   -1.53788981579194
C           4.65436189388590   -4.99631075998652   -2.56483874862953
S           3.74454112523710   -5.15859721953578   -4.01767885139959
C           2.29218564018621   -4.58027921908438   -3.23411048354938
C           1.07389633373813   -4.42781913511548   -4.01555946809546
C           0.30427314616595   -3.34828710606543   -3.89816100571822
C           0.73208391121114   -5.55153851689650   -4.97059327140947
C           0.54683596910320   -5.05088143129150   -6.42443344988734
C          -0.79118123280420   -5.44571301012279   -7.06698393903238
C          -1.06767379626883   -6.88183559710840   -6.78435036027723
C          -1.42603697469684   -7.88329570609747   -7.62272162284769
S          -1.60270050440008   -9.38343190186451   -6.78794918429362
C          -1.17302351618293   -8.64345972178054   -5.28978091036835
C          -0.92236850951565   -7.32040483009147   -5.43751122276220
C          -0.49922610435823   -6.30954405446058   -4.43007327550059
C           2.53703166292819   -4.32284454807964   -1.91601762565300
C           1.63121471804198   -3.82765426059465   -0.84210001376177
H           3.38146837229880   -0.59472305404190   -2.85059075198900
H           4.27021313754541   -1.96339516348556   -2.03526791929050
H          -0.25049796361548   -1.56501612629986    0.00265420754821
H          -2.81368328789673    5.56007716295632   -4.79095701911119
H         -10.43072485179285    9.84728188486363   -5.05011465949043
H         -10.93020017246487    7.00902917546845   -2.38690650862051
H         -13.28287911685176    7.04549678240028   -1.35223744786885
H          -8.11476886191364    9.59524198932104   -5.87183371248131
H          -4.11590490329695    9.61736853110213   -4.25700269219001
H          -4.42413523283062   10.27115968397474   -5.85104315170725
H          -3.04905129772692    9.22458680494716   -5.58812923423037
H          -5.72305518326471    6.59598689633353   -7.79523969577862
H          -4.09219740611671    7.22427462450081   -7.89427410686369
H          -5.45406523358098    8.28251567551457   -8.17827946060262
H          -4.61250311808930    2.56279893417902   -1.44750230089051
H           1.68241045086180   -2.25002027610800    0.62712466266114
H           3.61723467363489   -3.01625987827889    1.46940442397980
H           4.39243297097627   -2.15437864865575    0.15519692394954
H           3.87075897834516   -5.10946208361996    0.49061390560070
H           5.35733025497767   -4.30203465955684   -0.00401689192985
H           5.69708999321414   -5.24488526824088   -2.56827810509725
H           0.56219377611896   -2.53009785620135   -3.25019545258920
H          -0.60266129313912   -3.23794624933175   -4.46790486852372
H           1.56145803898485   -6.26553761582899   -4.96603150933922
H           1.35131982449907   -5.46505393272780   -7.03468911226326
H           0.64490046491144   -3.96470398186225   -6.45425619637171
H          -1.59614981652788   -4.84174070164089   -6.63678242302761
H          -0.76074686367747   -5.25060317927126   -8.13971449037909
H          -1.60296815836740   -7.84698653079016   -8.67916396069362
H          -1.14016622113607   -9.23966321124668   -4.39980595250112
H          -0.25525568366901   -6.77526656458192   -3.47399088996181
H          -1.31541044416173   -5.60112649700172   -4.26263442390809
H           1.51214058824394   -4.60353350673357   -0.08033277450019
H           0.64480631726626   -3.57449400563480   -1.22632869450994
