98
 SCF done       -177.286571394353          0.000919838956
C          13.10127928263162   -4.04339260635725    9.60910193307972
C          12.44554969161837   -3.37231039472175    8.85657310468211
C          11.70649945576026   -2.57385978249501    7.98065379825372
S          12.32031669624165   -1.03277423864498    7.45506195207403
C          10.89241208708220   -0.77202117954345    6.48238023361907
C          10.01792313743922   -1.83040208432050    6.58392679528506
C          10.47792259130905   -2.84535803142200    7.42892293909624
C          10.75865531447574    0.38584909268264    5.73178530111581
C          10.68971053496440    1.41136350825367    5.08499124663784
C          10.63027050281880    2.58228917697821    4.33893214353209
C           9.61931266211390    2.89438766179290    3.49569150310510
C           9.62752160284495    4.06684407117885    2.74812565814038
C           9.65171192440687    5.08109049432895    2.07986979648427
C           9.78649300036563    6.24041320769297    1.33387161897749
S          11.15902606536108    7.28553706109827    1.60414333887088
C          10.63360450074622    8.34732347611107    0.31952942855174
C           9.46088255143358    7.90126053321528   -0.25013348785785
C           8.98343824683294    6.72044966669000    0.32119715052672
C          11.41845750313990    9.43876193939754   -0.01418189732143
C          12.20153876161894   10.33373268959816   -0.26228422202942
C          13.16859838864960   11.29084598983451   -0.54797340342901
C          14.14963154235786   11.57917298829332    0.33562351248343
C          15.27486042707366   12.41086289006378    0.07905016780066
C          16.30034994925446   12.65838709352250    0.94748010083786
C          17.36988761182059   13.39177651530114    0.38295757656236
C          18.58406689154917   13.75601278663192    0.99621132575263
C          18.82361458113609   13.55921022046588    2.41151881042643
C          19.97273014431143   13.16720662228763    3.03484203853205
C          19.85380568939775   13.15435409220947    4.44192493640843
C          18.63367078974781   13.54238088029163    4.91187992324551
S          17.58747516473590   13.92710053146110    3.58746790930572
C          18.16775493163297   13.65611192787579    6.31712192006784
Cl         21.15562196550254   12.68409323408311    5.46707206873809
C          19.54682484290247   14.32652579333739    0.17008975398407
C          19.31993165998413   14.63431095250253   -1.19472134298690
C          18.06877352030393   14.35487963275263   -1.78263046041614
C          17.14057843976454   13.69651668415400   -0.98182551498716
S          15.57391849761078   13.12980148326998   -1.49381007173017
C          17.75493614018583   14.72881829164313   -3.14710005211170
C          17.03558033473666   14.03094143527161   -4.07358981940293
C          16.87227472255618   14.73842386597298   -5.28453556445271
C          17.44566437715340   15.97570889573661   -5.30088258751539
S          18.22232032000626   16.28479761944205   -3.78472179216621
C          17.46018423363840   16.98320488020586   -6.39155906388198
Cl         16.01443241636964   14.07650895585238   -6.62391772882557
C          20.48174031295037   15.15279600071641   -1.82003388279061
C          21.55274767747668   15.24843978754697   -0.98081732765860
S          21.16541224065449   14.74173553551094    0.65756082744545
C          22.86924837912104   15.57422992053923   -1.27235230046002
C          24.05106057042106   15.76899881357694   -1.47047706125092
C          25.42170652590054   15.86562683986598   -1.65128763875560
S          26.47611631401853   15.08629937511839   -0.49828566253152
C          27.87698108696884   15.55588186855571   -1.42916404763484
C          27.51776295423698   16.28519719344144   -2.54228771016409
C          26.13759493431453   16.45723402135209   -2.66813451138807
C          29.13394370265335   15.13985805100607   -1.02149493628654
C          30.18491408777921   14.68844725394557   -0.61151620270839
C          31.36452625511893   14.12197927844611   -0.14547943674197
C          32.57075702704973   14.25510778547995   -0.74361135842205
C          33.70140801345000   13.61037721448713   -0.25422879385581
C          34.67423174732946   13.02065423148833    0.17143766326525
C          35.74085470524128   12.30447104304245    0.68966853373990
S          35.49699589571559   11.23414171617466    2.04950133808400
C          37.17922425667383   10.77587124073378    2.02019849822576
C          37.86004960739488   11.42782991637044    1.01607875961274
C          37.05212594377095   12.28636936881557    0.26759329841790
C          37.67426298697942    9.85124873482887    2.93088848327468
C          38.06006086576787    9.03381681560702    3.73789016500722
C          38.54562560610288    8.08737209571334    4.65132432527096
C          37.77650259278401    7.47875440565795    5.55245814442964
H          13.65882029300694   -4.64169335516333   10.26554542473703
H           9.07952885351793   -1.85948052674995    6.05913067549843
H           9.93740780771073   -3.75223033803249    7.63491673464479
H          11.46512495217013    3.26334694761096    4.45470488508396
H           8.77724394126039    2.22601280593670    3.36863222642606
H           8.97611791428299    8.42161127046337   -1.05715544634685
H           8.08604289477027    6.21696466387924    0.00772737072704
H          13.14161117822556   11.76333462291097   -1.52174349703298
H          14.13411581682406   11.11093832282494    1.31174851123052
H          16.30159191479502   12.28462647311403    1.95484382592834
H          20.86574819451119   12.86139478842917    2.52265906877891
H          18.94232299487507   13.29479874350638    6.98895294383005
H          17.26159829407358   13.07146738555853    6.47070964422387
H          17.94303690070911   14.69367063307661    6.56426932596110
H          16.66128625171847   13.03557471978846   -3.92446070850969
H          16.99862094175279   16.56400973354491   -7.28223938760398
H          18.48113563080105   17.28177329746069   -6.62597441398590
H          16.90904422208200   17.87623777757296   -6.09672438290578
H          20.54416187282026   15.40623077436222   -2.86216896672945
H          28.24016491486337   16.66840079426915   -3.24087167677915
H          25.66527291386021   16.98972952481433   -3.47454993543679
H          31.27394809299831   13.51974552790727    0.75110104312556
H          32.68539613778399   14.85751630875563   -1.63558249395707
H          38.91007193692935   11.27721575639399    0.83775410994921
H          37.40211997825521   12.87865326276848   -0.55936884132354
H          39.60495197622350    7.86984451654760    4.58053156394264
H          36.72281192914879    7.68975378937673    5.62770956057812
H          38.17987326259190    6.75430474964325    6.23856269141335
