104
 SCF done       -209.506432678058          0.000567899294
C           1.75904332745272   -3.33750652190532    6.44379514334433
O           1.43361863692381   -2.86943041866814    5.38324476826604
N           1.50837520980993   -2.66527966837845    7.63915161847480
C           1.32869341955914   -1.30145930908866    7.73470749688172
N           1.05320730589007   -0.93277048470397    8.93824724045363
C           1.01210264147524   -2.07635530802536    9.68767790292339
C           1.29389995768520   -3.15613793706272    8.91527819508130
N           2.41681959314970   -4.54718909508667    6.58383395656892
C           3.32849200537164   -4.86562406398054    7.58132126228495
C           3.79803121949421   -6.10564424009225    7.29122585238678
N           3.21126256577440   -6.58520820421022    6.16764899555358
C           2.40007813056179   -5.65473459215823    5.72411615904073
C           1.60239593627105   -5.85068957957366    4.56620825545943
S           0.57941336430068   -4.67720586118008    3.79701221577632
C           0.06228223901353   -5.79752314427166    2.56460352803327
C           0.67991107594600   -7.01686316074151    2.74973970163779
C           1.54906086373111   -7.06257477023551    3.87347474957721
C           2.15335788384180   -8.33161454464759    4.02666549233118
C           1.75671345026998   -9.20145419936075    3.05541736245458
C           2.15276824368505  -10.59840179450971    2.86405616861452
O           1.75068126095855  -11.30329269875484    1.97150201946378
O           3.02054256676866  -11.00266938120255    3.80409559773185
C           3.45999298319172  -12.34843379691103    3.69280519339457
S           0.62435372259995   -8.52651821484005    1.90100608239784
C          -0.84854611629860   -5.39436213214106    1.55464881395664
C          -1.48267751412413   -4.18720901655364    1.45243493810616
C          -2.31756359057821   -4.07885665273952    0.31762524924506
C          -3.09020150182612   -2.97237877335076   -0.09253451147089
C          -3.10276574378375   -1.71626835468659    0.62926847302946
C          -4.16796751300368   -0.88941810834719    0.84808253333269
C          -3.81462057920594    0.28397207017661    1.54812041732888
C          -2.48933096670553    0.37882716753746    1.85952990015346
S          -1.64567647581784   -1.01834760213315    1.28554063557559
C          -1.77578391481735    1.46750074659205    2.57302844086480
Cl         -4.97291386767339    1.48583842661894    1.96870787819404
C          -3.83685739476722   -3.13705730282193   -1.25406080942030
C          -3.82721977409946   -4.32345682766789   -2.03004789697877
C          -3.04705513008165   -5.42603504436258   -1.62588215009448
C          -2.32473493427153   -5.27375833139187   -0.44646613468926
S          -1.27502998423666   -6.47933425485815    0.24967550519401
C          -2.96127264432590   -6.64972316367571   -2.39663151748092
C          -2.88013957620244   -7.93035630200320   -1.92921391357277
C          -2.74304495266168   -8.88333120825081   -2.96168506148359
C          -2.70357727492429   -8.35395437779212   -4.21856412777853
S          -2.85010962717250   -6.63139376013651   -4.13761046034536
C          -2.56059767812779   -9.05192362685426   -5.52084385448144
Cl         -2.63454533898778  -10.57105284165852   -2.64199939432209
C          -4.66045850420992   -4.21338822259409   -3.16790635594180
C          -5.26315806819653   -2.99444833000086   -3.29266541951608
S          -4.84574608466566   -1.91457171869432   -1.97872427771689
C          -6.13967570515507   -2.56026398514910   -4.32436925472906
C          -6.76199989236925   -1.33400167044400   -4.43985552257011
C          -7.54666201903453   -1.25345278770510   -5.59270445498099
C          -7.51571736977701   -2.42940843077362   -6.35714625154405
S          -6.52668714739304   -3.63437507305869   -5.65947369923909
C          -8.33767766429259   -2.25228570183276   -7.50198686947985
C          -8.88657821317950   -0.95885304720926   -7.45691053435528
C          -8.41086126289419   -0.28879524501092   -6.25647849223891
C          -8.70758112301177    0.97425020362048   -5.83811066841674
C          -8.18067533045295    1.51334546393170   -4.64500838373232
N          -7.75339855400727    1.95992499788489   -3.67921478947566
C          -9.55869767130151    1.83424319494562   -6.56449908208688
N         -10.24568670708953    2.54845067913157   -7.14083266083584
C          -9.71074618011411   -0.69260245575594   -8.54633058290814
C          -9.78692079714809   -1.76966125099227   -9.41588881814560
S          -8.83858988994631   -3.13679547659919   -8.86992560851158
C         -10.58162987194743   -1.71500702707665  -10.59884112636001
N         -11.37250987486026   -0.69989885335753  -10.83468918648725
C         -11.95625770343639   -0.91476490530765  -12.04000291874588
C         -11.50280465339290   -2.07074270790482  -12.58725917491063
N         -10.60629781715239   -2.61187575463365  -11.67473346746999
C          -9.95474436801436   -3.82633542469489  -11.79611170704097
O          -9.63362420922666   -4.51050424708541  -10.85883562834781
N          -9.69215350261500   -4.21440822520615  -13.10904236149145
C          -9.43293211326090   -3.44444788772381  -14.22563958768435
N          -9.09592160397606   -4.16650878837675  -15.23802050752963
C          -9.12463621862072   -5.46698224606576  -14.81292683531026
C          -9.46478601454523   -5.52117263895202  -13.50140207665212
H           1.43896170223512   -0.65883965205752    6.88517653009446
H           0.78121037056436   -2.03852340411799   10.73284042768240
H           1.31450601283406   -4.20216458823705    9.13979442506148
H           3.59665336464620   -4.17155433995956    8.34980110016625
H           4.52441572987705   -6.68872115865508    7.82044552161421
H           2.84427992714430   -8.56975040532822    4.81248271823019
H           4.16199447040081  -12.50533686503782    4.50740279445875
H           3.94602043882147  -12.51084948864024    2.72850296082377
H           2.61310789117494  -13.03272909146219    3.77735540878680
H          -1.34791923716646   -3.41086086053146    2.18273397950264
H          -5.17787522076460   -1.11467449781297    0.56050850033517
H          -2.49779262447566    2.15436379694546    3.00765496320486
H          -1.13609791657560    2.02175157690180    1.88573292604063
H          -1.14670916030636    1.06012238985404    3.36268384395004
H          -2.95013034210142   -8.20143647575846   -0.89252564794533
H          -2.57473885026244  -10.12705236175637   -5.36106165220656
H          -1.62090343615132   -8.77954833313404   -6.00129609627969
H          -3.37240280090629   -8.77997702645060   -6.19418440435965
H          -4.82086020899184   -5.00652571495165   -3.87486761525363
H          -6.63891517410047   -0.55126538627948   -3.71308999143390
H         -10.24281303237122    0.22091181558487   -8.73645515765895
H         -12.66849353094530   -0.21839558134317  -12.43368851602652
H         -11.77043321594684   -2.57891427277474  -13.48967871786053
H          -9.46843201751135   -2.37359715629697  -14.21959972095973
H          -8.89215373876702   -6.26679384372137  -15.48564359320298
H          -9.58512877504956   -6.33144125219687  -12.81371659327283
