98
 SCF done       -210.412200502251          0.000962965351
C          -2.92136487400583   -9.64423569716500   -2.57728384242334
C          -3.97035630479937   -9.56768459961095   -3.48125496724347
F          -4.57077409178575  -10.69551357103951   -3.87389353293637
C          -4.41027433398502   -8.34450355307957   -3.99039741941959
F          -5.43179095092657   -8.31812318508266   -4.85303969480782
C          -3.79928441533101   -7.15889938467414   -3.61371000601523
C          -2.74781954581761   -7.23442117971978   -2.72142765417996
C          -2.30782370875045   -8.46241756460233   -2.19548713077392
C          -1.22676527202293   -8.20623205485089   -1.24450946766816
C          -0.86329583610665   -9.04543505983717   -0.22417323279076
C          -1.34076423253175  -10.36455904291283   -0.08115819155832
N          -1.68252499974584  -11.44918248239398    0.07199023849164
C          -0.04535200895417   -8.65414370323149    0.85649663426617
N           0.58001596576884   -8.36969289567165    1.77618227355370
C          -0.85634283802541   -6.81441329465762   -1.38423521554440
C          -1.91618972396260   -6.13576281119565   -2.17674202454678
O          -2.03725942437623   -4.94955240255462   -2.36518722329578
C           0.24266673651941   -6.11735990417272   -0.98101552301596
C           1.50342322568302   -6.61009254542359   -0.57567385350505
C           2.40677430715854   -5.95834297400716    0.24950430645049
C           3.54515573144502   -6.71856476671206    0.48899147728286
C           3.54687518088886   -7.94089250761691   -0.21839129367887
S           2.13029303819002   -8.16334148706685   -1.13606028028294
C           4.72399973559209   -8.65001330737143    0.10789884182959
C           5.45043593749548   -7.90058172169669    1.05213219552175
C           4.74490888456226   -6.65117504129078    1.30165810087652
C           5.13446202235195   -5.63864778875266    2.12799535843107
C           6.32851728793074   -5.70390216916617    2.87681153993634
N           7.30122818582568   -5.75901571280651    3.48142043862809
C           4.37789843277630   -4.45673839649072    2.27765733150969
N           3.77360062617367   -3.49033827228374    2.39982264031531
C           6.59573454761873   -8.55114067846936    1.49764130345978
C           6.76943300853314   -9.78133716567677    0.88301120656485
S           5.48590958887607  -10.13428947251020   -0.26618590897131
C           7.80213131549338  -10.72982349412519    1.13729168837319
C           8.09715725031481  -11.76826776074343    0.28363294409487
C           9.06206803626051  -12.74107889144937    0.52688796279477
C           9.80084600498065  -12.77279618369500    1.79037974171451
C           9.69964083352275  -11.83083203873487    2.75426640644285
S           8.65610364734142  -10.47665252105391    2.65471830276820
C          10.61834678166491  -13.93310094917559    1.71907459360133
C          10.44316260846251  -14.57163929316814    0.48759775871902
C          11.24780545553889  -15.73043284474985    0.39163894427928
C          11.98671881230156  -15.92769590055520    1.51506037163286
S          11.74902812109151  -14.72716932747768    2.73529603081284
C           9.48778903852168  -13.81740806440772   -0.28842880978840
C           9.11020060812809  -13.98852586438174   -1.63442818975617
C           9.57971629736072  -14.95253722102277   -2.47754444308004
C           9.32624068000985  -14.99729311453906   -3.86441317557953
C           8.61034661179698  -14.10759743441768   -4.66223016452487
C           8.68534351180966  -14.43325878658890   -6.00822747257757
C           9.45364416039344  -15.58963820254787   -6.26047786087068
S          10.07367006083860  -16.27109775737389   -4.82034861635436
C           9.52211552090133  -15.79268508103885   -7.65318483801097
C           8.79561008898660  -14.75908767093966   -8.29306800263783
C           8.24595039272441  -13.87927748553924   -7.28195038561690
C           7.51622034911874  -12.74356375426822   -7.48467470010950
C           7.19959446361929  -12.29721675948925   -8.78475177839214
N           6.95175836518920  -11.94922821607735   -9.84890150447214
C           7.04521787192942  -11.95704036357973   -6.41412769671704
N           6.66210999982739  -11.32755968106794   -5.53500030743066
C           8.87128089837188  -14.82214764665157   -9.67556061303508
C           9.64411770420711  -15.89020146696395  -10.11576761073725
S          10.24813771597722  -16.85525427180568   -8.76522547743896
C           9.96114469784628  -16.28241469042484  -11.42791063422950
C           9.89992293561325  -15.55789581057169  -12.58577733538496
C           9.88360728607249  -16.29059134544654  -13.87876587647846
O          10.10173001835224  -17.46727686196367  -14.04878009975254
C           9.50012238120592  -15.28185279811187  -14.89144151874218
C           9.40570919028551  -14.01960342182295  -14.27975650982385
C           9.02356292014507  -12.91424571535753  -15.02200061203120
C           8.75334021080857  -13.09968522877101  -16.36998779332609
C           8.86618860362860  -14.35264351137507  -16.97417130974211
C           9.24072194459632  -15.46376905253806  -16.23553774440733
F           8.60566273629629  -14.48283605218978  -18.28020228877057
F           8.37396979811018  -12.04976692982833  -17.10537119829261
C           9.79179538669277  -14.14557244828455  -12.87217797221763
C          10.22508793900794  -13.10336198547166  -12.09359599419268
C          10.84767162520942  -13.25470934923632  -10.83954571988887
N          11.38575295880149  -13.31732877487921   -9.82698899409522
C          10.19896995955089  -11.75135383726453  -12.49751944884828
N          10.20604358541235  -10.63730373030869  -12.77128478515391
H          -2.61350477319965  -10.61039371163678   -2.21169260613026
H          -4.13923961341349   -6.21379118727856   -4.00612881455619
H           0.15217886636250   -5.03613024898097   -1.03028987888284
H           2.19953426041686   -4.99793355921533    0.68584620436848
H           7.28334162584760   -8.16027861725528    2.22583532945854
H           7.52544624239340  -11.81489483154185   -0.63417309973051
H          10.28418241322166  -11.86126580849958    3.66006555538925
H          11.29136447842277  -16.40307577616694   -0.44453251804797
H          12.67646670329539  -16.72526137453165    1.71073670415486
H           8.43300874172396  -13.24640988344686   -2.03354985810614
H          10.23294728633335  -15.72101438795342   -2.09619738298149
H           8.08231505468787  -13.25884338827123   -4.26954238999540
H           8.36255777967464  -14.15484617964170  -10.34745069164387
H          10.24442632694074  -17.32213686850704  -11.56318850092505
H           8.91745121764128  -11.92900772088947  -14.59810917650504
H           9.32562612326221  -16.43313047149858  -16.70012356318912
