141
 SCF done       -231.087347247189          0.000967543600
C          -2.26776336492544   -5.38560257130113    5.89432037555849
C          -2.72323852971506   -4.44295105065850    6.80329577511504
F          -3.12208927367794   -4.84909983053502    8.01342695232633
C          -2.77211817820838   -3.08423375830459    6.48671985369588
F          -3.22629053935199   -2.21126422345815    7.39329865998701
C          -2.35367495400219   -2.63029058808671    5.24626642048542
C          -1.89028565457132   -3.56670568382324    4.34284941439881
C          -1.84800637636862   -4.93823034993914    4.65150738335949
C          -1.36338153891978   -5.66878787978321    3.48170738768216
C          -1.56703387701832   -6.99992394185024    3.23837615176728
C          -2.07104711240992   -7.90954235867315    4.19041142047339
N          -2.44083830945893   -8.69527142515330    4.94056417438977
C          -1.36412204166861   -7.60214735594475    1.97874297353571
N          -1.28365930253647   -8.13819000662991    0.96768519337519
C          -0.88562336366561   -4.68510665152958    2.52917870275480
C          -1.36729202877797   -3.35039537905117    2.97283309246965
O          -1.30162613462114   -2.30993483935252    2.36315544762999
C          -0.06601793566428   -4.78742085619476    1.45132927610840
C           0.79053095708334   -5.87604188469349    1.07416712507275
C           1.36241220198731   -6.72669881010606    2.03712508261671
C           2.19492761725773   -7.73702566949461    1.63314509936777
C           2.46292095715188   -7.94207658921350    0.26617248002198
C           1.91632883660440   -7.09859551306659   -0.69140371476391
C           1.10696840611511   -6.06106006408238   -0.27965494043382
C           3.35631865729139   -9.07216603377935    0.13964690238471
C           3.65599742008879   -9.55271212660255    1.42523909601666
C           2.93216153065259   -8.74811139982315    2.47888554389492
C           3.91384883055826   -8.06277188162150    3.44715313468351
C           4.91764673226896   -7.16477944101472    2.73410439978873
C           1.94882168844272   -9.62936178544455    3.27415376395754
C           1.01120823099845  -10.43129038197635    2.37933023511667
C           4.50280361737370  -10.62277374579533    1.59281191164629
C           5.06365026850448  -11.24086340677347    0.47029053590707
C           4.74653832149353  -10.76141648513137   -0.80370083816079
C           3.90188369140964   -9.68284718236858   -0.98002621255874
C           5.97600674850618  -12.37880412188820    0.63158133993881
C           5.75117125411331  -13.32827644749772    1.63400498520311
C           6.62430914783607  -14.38041118244395    1.77868491344426
C           7.73094607354217  -14.51359856109560    0.92562017008273
C           7.96207286456716  -13.57875363614980   -0.07023081242526
C           7.08406558803515  -12.51960286056055   -0.20633939085277
C           8.46891037948753  -15.70125737865209    1.31045170476417
C           7.82485529112334  -16.28917757627826    2.41023867150571
C           6.59225886334097  -15.50220865453690    2.79052167353251
C           6.68949893636432  -14.96107120195343    4.22880074156212
C           7.92761635531659  -14.10133912551079    4.45354841751988
C           5.31866107281470  -16.35593372771690    2.64535234993926
C           5.14833756987330  -16.93014813951098    1.24402481286309
C           8.33115505250561  -17.42738795010649    2.99203343925195
C           9.49634398793492  -18.00493961841105    2.47692803096677
C          10.11839239344258  -17.41910347377405    1.37257666447737
C           9.61650419559613  -16.27260034053279    0.78538286868446
C          10.06170175694368  -19.21071524255256    3.09383579537615
C           9.21956599692743  -20.21284624174550    3.58742777752277
C           9.76298718311090  -21.33540170618355    4.16895197415487
C          11.15770985742823  -21.45932529204164    4.29599902182185
C          12.00135839026825  -20.47224390799289    3.80811967358536
C          11.44620513423077  -19.36073903082638    3.20597320646396
C          11.45232278763608  -22.67853253233847    5.01340022324476
C          10.23605028610876  -23.30239360540511    5.34649872763363
C           9.06535036624389  -22.53219958859258    4.77537903254294
C           8.05038386257062  -22.12442600580035    5.85351020775746
C           8.69349090295129  -21.33033942000499    6.98496261514888
C           8.42137473567056  -23.44163735919620    3.70070509943318
C           7.36615865839213  -22.78636574319467    2.82045337574863
C          10.22617985111306  -24.48132459562650    6.04458280720100
C          11.44525431588713  -25.06793757690184    6.42817160901085
C          12.64831144600109  -24.41195813691690    6.12481907945481
C          12.66171600958036  -23.23445848612153    5.40913118739721
C          11.49428594555355  -26.29981066566495    7.16026620738141
C          10.59561410180450  -27.31769086588737    7.19751885172979
C          10.65265229325126  -28.29787084275615    8.31455965942488
O          11.55273676000262  -28.45176968758975    9.10523643977849
C           9.34879553312052  -29.00008215111924    8.27761991924856
C           8.61876746298312  -28.57563152724375    7.15310516297464
C           7.34653069192893  -29.07466202779176    6.92205241294134
C           6.83473057432764  -29.99238664820971    7.82678602364972
C           7.56988652995761  -30.41744200086053    8.93464178836668
C           8.84192994519007  -29.92236680725354    9.17207854522984
F           7.03769012829623  -31.30979857825619    9.77768281861298
F           5.60374256658154  -30.47717264338196    7.63161559016588
C           9.43942139518874  -27.64031895927203    6.38360462978457
C           9.26140760368528  -27.34085937869521    5.06013226007138
C          10.21716397033236  -26.67071519942990    4.26612047358312
N          10.97204508174242  -26.18843038237028    3.54935699194009
C           8.12892222379588  -27.72324584596927    4.31186129462582
N           7.21143792593646  -27.97607883510757    3.67046244094659
H          -2.24664886227262   -6.42423943599619    6.18225147128315
H          -2.39210004282653   -1.58105647067530    5.00048522426700
H          -0.01187009520142   -3.89669573112356    0.83254287976125
H           1.17831326029569   -6.54680384704776    3.08696761860056
H           2.12677783952885   -7.24533595137818   -1.73967637483053
H           0.67069770652070   -5.39493937266186   -1.00919631213365
H           4.45109919668284   -8.83410085540731    4.00282982800115
H           3.34267202316953   -7.47182538962373    4.16667344111383
H           5.51086383995477   -7.73983927344047    2.02662210743806
H           5.59033492730837   -6.70877690349191    3.45673804658216
H           4.40866987013179   -6.37206525916354    2.18995955861516
H           1.36137409987318   -8.98838054894392    3.93604330513632
H           2.52289324452353  -10.31415103389937    3.90233428316636
H           0.45387280214293   -9.77756593527215    1.71227666958448
H           0.29956735811253  -10.98421730536380    2.98819232158592
H           1.57057700494348  -11.13976854008047    1.77262157482802
H           4.75510647735234  -10.97503423089192    2.58219456205787
H           5.15645740109102  -11.26053970239789   -1.66910853218119
H           3.66736488783529   -9.32773765798031   -1.97219906792061
H           4.88386454538275  -13.24068092138451    2.27212634576492
H           8.81543104434588  -13.66856420975635   -0.72579122888052
H           7.27181844941486  -11.76996403024575   -0.96090475387267
H           6.70504787047642  -15.80585132661219    4.92085774885216
H           5.79457732752708  -14.37245177591844    4.44243214848332
H           8.83216076272585  -14.67535980399061    4.26501654363758
H           7.95454394879785  -13.74372576833244    5.48043558575250
H           7.92410881294288  -13.24067856409861    3.78819039184519
H           4.45253497436694  -15.73752020399411    2.89069380094760
H           5.36103206843863  -17.17244572090216    3.36967547891716
H           5.08023303627227  -16.13196618898497    0.50824945323127
H           4.23958953207010  -17.52533594737863    1.19104571003599
H           5.99218618337145  -17.56510468197939    0.98299182036555
H           7.85286343131860  -17.86244278018484    3.85756465799926
H          10.99902106958377  -17.88552902969382    0.95617958718933
H          10.11161033970368  -15.83453135067043   -0.06842767998388
H           8.15033617084393  -20.09607817015404    3.50002597131799
H          13.07242467136889  -20.56374075444219    3.90826025956085
H          12.09177223689385  -18.57376417434850    2.84546038729498
H           7.58378142044894  -23.02472541604271    6.25942336894926
H           7.26641231262717  -21.52059612006096    5.39494014927848
H           9.46087782931418  -21.91955446876938    7.48239520711579
H           7.94352736183928  -21.05072591551776    7.72140414812670
H           9.15566210074745  -20.42325427039269    6.60158568832076
H           7.97299578641535  -24.29606245444828    4.21434455462317
H           9.22140967898333  -23.82750301391175    3.06374125926798
H           6.55618626218501  -22.36913803178560    3.41313327823037
H           6.94366373398461  -23.53549281459645    2.15472851964564
H           7.80207859225461  -22.00043745820693    2.21027971112707
H           9.29427076916325  -24.94093582136255    6.34068258925926
H          13.57822162162968  -24.86678450164200    6.43269716863522
H          13.59596792163534  -22.75392644094355    5.16226940717980
H          12.34092949285767  -26.42316756525116    7.82953540826433
H           6.74107925033971  -28.77491681828195    6.08208887505427
H           9.41131895100163  -30.24891737439921   10.02762406913171
