114
 SCF done       -213.549676667127          0.000793929220
C           3.11644476572507    0.70616588924475   -0.45722945838386
C           3.34474148509519    2.05752086808430   -0.24341473813937
F           4.22358563852483    2.69496932955376   -1.02086466174558
C           2.68162831051280    2.76234061239045    0.76332585551922
F           2.92754998452675    4.06486640418794    0.92833419112679
C           1.77358213002966    2.12391687906963    1.59322456529626
C           1.55316691466381    0.77622320174991    1.38711074073213
C           2.20911017439154    0.06187448764419    0.36869000847609
C           1.72733021529428   -1.32035700866093    0.37521958704880
C           1.82988099225138   -2.19733775064877   -0.67286751239912
C           2.61867905581976   -1.96806869838445   -1.81913422175431
N           3.28908322758793   -1.85727238021992   -2.74383661508062
C           1.11881348372218   -3.41219281112234   -0.75213901749047
N           0.53968932013278   -4.39353756334108   -0.88590673567071
C           0.92301814692133   -1.48949436589264    1.56460168884650
C           0.66151290379982   -0.13805412374787    2.13589977924617
O          -0.08760412767186    0.13306054144515    3.04195311671855
C           0.45164300770017   -2.58260136714296    2.22600800944531
C           0.81139461054388   -3.94772235351067    2.12468700354080
S          -0.37769185533545   -5.14525572066976    2.58865434074179
C           0.70168306110759   -6.42429562479937    2.24972116808520
C           1.92117192105013   -5.97538867709499    1.83766797490276
C           1.99651078733806   -4.56919022862819    1.77041383298700
C           3.31847335507966   -3.96854405409661    1.43744868994312
C           4.43672732151913   -4.64926161552461    2.24441579439767
C           4.29909257200513   -6.19388017001919    2.37381985213146
O           4.09951301518301   -6.42089808783987    3.75554483366222
C           4.24979604814598   -7.75198061170570    4.19149696597767
C           3.14827934968277   -6.75312582076449    1.51677142043057
N           5.71139128148790   -4.26696837143763    1.68011031126488
C           6.89024309328632   -4.54219492856807    2.25546448563396
C           8.08603190335547   -4.05667967773649    1.82532244826612
C           9.31742208366790   -4.33884285893864    2.45319578674099
N          10.34900151920655   -3.50417956337347    2.33563263898405
C          11.29784863564935   -3.95916839543431    3.16557054911704
C          10.85356531538734   -5.18406587558442    3.85546217780108
C          11.90801678700537   -5.70790635052591    4.73788716540919
O          11.87423648645788   -6.70886557125472    5.42598455426640
C          12.98478556742333   -4.72642297029982    4.55405522996451
C          12.57713846379289   -3.68083000123013    3.59361437619486
N          13.58025428041439   -2.79530101279692    3.39898268136507
C          14.56758704201866   -3.22160517716958    4.15551664236006
C          14.26876468253706   -4.42271680739905    4.89323524922208
C           9.61325299695174   -5.47140245056913    3.36886697469429
C           8.88371231599608   -6.68306391168220    3.61297170861503
C           8.21786043537261   -7.35565892525558    2.65461519586335
C           7.58564900977493   -8.63323359802216    2.77016876794385
S           6.59802155869815   -9.15272597375318    1.42169137197725
C           6.18988433598880  -10.60906625264963    2.22669138662234
C           6.78283291085733  -10.71407000208981    3.44913903469194
C           7.59199947077247   -9.59145632490243    3.76370211942933
C           8.33427036375669   -9.49889056464627    5.05949322262330
C           8.45856765328491  -10.86626710996395    5.73145646639588
C           7.06689803044287  -11.55627278780358    5.78863938201247
O           6.10870789561417  -10.72500264982603    6.40199400557680
C           6.11960015412705  -10.74059962458012    7.80909015994235
C           6.59427661770438  -11.87726520110915    4.37038877373622
N           9.40797964245992  -11.67506144528174    5.01174823483408
C          10.13942885185648  -12.64309340303442    5.55599038399087
C          10.98516974176264  -13.46103800535810    4.85518451715728
C          11.79880848053397  -14.45205665029544    5.41457130256341
C          11.79671263055867  -15.03839832434381    6.66279165634953
C          13.04676524530536  -15.68302181468851    7.12393481282571
O          14.03600743371559  -15.91992960628880    6.46769719334740
C          12.84626403969759  -15.94080247204777    8.57142433380185
C          11.53304637538685  -15.58799154950199    8.92261119107403
C          11.10870015658456  -15.70980616675319   10.23481680057400
C          12.01779565535272  -16.18426821275966   11.16992027356480
C          13.31657239258241  -16.54130325965494   10.81173352770845
C          13.74668600333279  -16.42303909618735    9.49863178666074
F          14.15915485593104  -17.00004199407060   11.74642059258720
F          11.63290568252492  -16.29501927687301   12.44780295233591
C          10.82755657415090  -15.14372705243131    7.71564833309395
C           9.45511508075276  -15.08560778459219    7.60536089091572
C           8.77625841148651  -14.90080583881949    6.39137590101231
N           8.17120989444489  -14.72996393455788    5.42843412741634
C           8.55859929581429  -15.22793916741429    8.68056923784679
N           7.77001344859999  -15.28366590477344    9.51421686345534
H           3.65198976474232    0.20619280719416   -1.24789093175130
H           1.25908731714134    2.66654360606239    2.37019367733146
H          -0.29264966749609   -2.35498419768698    2.98450111583215
H           0.37527238426994   -7.43936072114718    2.36205915846108
H           3.33496968879215   -2.89754881975876    1.64632625249811
H           3.51443161856928   -4.11787996042724    0.36818517438090
H           4.37796547322596   -4.28469141999664    3.28007414581487
H           5.23743026415826   -6.67327042793752    2.05267639940253
H           4.18647789493403   -7.72044961101791    5.27671381910984
H           5.22292466069625   -8.15710846062329    3.89987599317645
H           3.46021413648610   -8.40558868288313    3.80969566976340
H           3.01357599446904   -7.81560295328958    1.71198108501482
H           3.40554677626061   -6.62991498972430    0.46226959960114
H           5.71219292010762   -3.68762921449914    0.85333758738628
H           6.83374803667876   -5.16759232343140    3.13517399768192
H           8.11950475076738   -3.32860075830755    1.02706263666555
H          15.49857084881845   -2.68239366819968    4.18403377013325
H          14.93872147638028   -4.93323664265382    5.55676542147709
H           9.01573406738613   -7.09070117627001    4.60194243815364
H           8.14901610056631   -6.91137704946767    1.66870689148103
H           5.53274732753112  -11.31015696301799    1.75239078884281
H           7.79262974877009   -8.83070849664891    5.73450447514216
H           9.33680280877042   -9.09361240626397    4.90319130805085
H           8.83500853799300  -10.73565506463326    6.75191012196549
H           7.15965524309010  -12.49877109945975    6.35002760138362
H           5.24225625262604  -10.17962379138035    8.12467197420721
H           7.01595713344519  -10.26333026906392    8.22079559860108
H           6.05441550263731  -11.76436401041409    8.19451968903327
H           5.53710075697149  -12.14358821334968    4.41188070778998
H           7.13973645163490  -12.75325535382880    4.01002647110635
H           9.37770839926518  -11.60903778855821    4.00341337568342
H          10.10468853008554  -12.69351572498769    6.63620201648093
H          11.08591207453107  -13.28927528556454    3.79223234076862
H          12.62943501900915  -14.78001600728592    4.79627595761146
H          10.11607599187612  -15.44528459125731   10.56115014985440
H          14.75084911574709  -16.69924555129849    9.21943928245245
