97
 SCF done       -180.943751748072          0.000679955991
C           1.42961592296498   -0.61801471173349    0.50808989967850
C           0.86546911605731    0.48933502390661   -0.10860080629037
F           1.66884825089211    1.46764758099590   -0.54661326820643
C          -0.51256484885916    0.60632485364387   -0.28505131355447
F          -1.01461051922117    1.69764607924019   -0.88023925556659
C          -1.36890646363824   -0.39544118216373    0.14472377612078
C          -0.80764710265717   -1.50330238219549    0.74724430934890
C           0.57997074540125   -1.62329568289954    0.93918137405920
C           0.85127181497052   -2.88140578092866    1.63474457158158
C           2.00280102630889   -3.17349892413720    2.32042780988708
C           3.17617864581754   -2.39788803923432    2.26028250537882
N           4.16956019069215   -1.82290457421145    2.22199297583649
C           2.12154608002080   -4.24911550111759    3.22218970075931
N           2.26278365051727   -5.08611704854346    3.99535890194628
C          -0.37857912027660   -3.62987191056329    1.66425779728127
C          -1.47994766898293   -2.72008658362204    1.26250906629869
O          -2.66870493667450   -2.94072536138112    1.30948018429863
C          -0.66566647934789   -4.94415012737532    1.90244206753986
C           0.17054038988074   -6.09010208429485    1.93858748192669
C          -0.28915358356543   -7.26144666443342    2.55350522637272
C           0.46286951596533   -8.41378672375014    2.65688309487666
C           1.74573541327852   -8.53270705989130    2.11262636306711
C           2.22710547095275   -7.38821441606401    1.41394670453006
C           1.45018645841312   -6.18091678996591    1.32793710907903
N           2.06037165675730   -5.25109659334569    0.59589880522858
S           3.47893335173651   -5.81644621406544    0.08865462454247
N           3.38246118546557   -7.28004030427350    0.75926486087334
C           2.52131467604753   -9.71689666723889    2.22520291405223
N           3.77800537798440   -9.81488582309257    1.67106026388186
C           4.26851440076877  -11.05060938918027    1.92416573849019
C           5.35818300159110  -11.89062195645845    1.72918625365011
C           5.02961360498632  -13.10469337247426    2.35104048457473
N           3.77349562743575  -13.00500706324424    2.91417297280310
C           3.28326169814263  -11.76360030734781    2.66929741892033
C           2.19319206701470  -10.93102436275730    2.85897203105969
C           5.74162914687463  -14.32422621995022    2.45798106465270
C           6.98139314849788  -14.54674870344157    1.95719648431396
C           7.76150112127712  -15.73453900813037    2.00564386378780
S           9.35332120028136  -15.51634635453766    1.31748633558110
C           7.58889758030978  -17.04983532189572    2.45035775670308
C           6.37571585963172  -17.61334464503315    3.06543049516778
O           5.35096991122429  -16.99464276921308    3.32618720726447
C           6.48095154286943  -19.03108777468992    3.36376656063490
C           5.53210436800233  -19.87138160339600    3.90563424351855
N           6.06420540898150  -21.11229578313807    4.01006487967252
C           5.40031977942658  -22.25097125567319    4.59159701301678
C           5.56250838332182  -22.26514858468312    6.11025260392245
C           7.34272680451082  -21.09504299335627    3.56189287705001
C           7.64206525469567  -19.81740876064962    3.14370015349477
C           8.86524511663171  -19.28034037608829    2.57745320515277
O           9.86796304430190  -19.96254812803621    2.41226065313045
C           8.75470250500092  -17.85452035004004    2.22833264452932
C           9.80462331003351  -17.16344326098536    1.62767020835424
C          11.08586752424421  -17.65353967169430    1.28518202411135
C          12.05695290229013  -16.90630115455231    0.70279817965553
C          13.34479786438176  -17.39045266430834    0.36911077160989
C          13.88528567399629  -18.65400829919989    0.54728649896638
C          15.19768610345804  -18.76440710564651    0.10382202576355
C          15.67764965521149  -17.57041192575266   -0.42462176882220
S          14.50726489779916  -16.31314023997078   -0.37433958671469
C          17.01307481183693  -17.55492185109370   -0.90879723205551
C          17.74890675685220  -18.72417738328433   -0.82089460237502
Ge         16.62596815678105  -20.11807287639096    0.00124620374279
C          17.26776454041701  -20.71838009012541    1.78055665823955
C          16.20520476586559  -21.62944908432739   -1.21411458681139
C          19.04644132159500  -18.56275513636801   -1.33379421875903
C          19.27726231824019  -17.30225796598867   -1.79500058325304
S          17.91412251196594  -16.26512397061736   -1.61855071088591
H           2.50030896240503   -0.66628442889148    0.62161603148380
H          -2.43490829193119   -0.30627440068872    0.00884854689835
H          -1.72658859102690   -5.14617254799754    2.02382541227661
H          -1.27008937881302   -7.24007739890377    3.00556147181017
H           0.04616528307441   -9.25793323167670    3.18188477758293
H           4.19879753745594   -9.04547014502252    1.16780573899740
H           6.27026490949044  -11.67718988801789    1.21055894247738
H           3.32378993474132  -13.75328791239110    3.41380738649147
H           1.28226865550348  -11.14903553387448    3.37774702205157
H           5.23538316871450  -15.12587180540568    2.97394811344170
H           7.48356360661045  -13.72803833260080    1.45526277083573
H           4.52551854135121  -19.65635840821301    4.20468461430433
H           5.82956939949603  -23.15895481335557    4.16112412220390
H           4.33962973701385  -22.20802912649128    4.33004680265725
H           6.61542309235566  -22.31027249812006    6.37729444213533
H           5.05760553471878  -23.13020864397434    6.53063327007531
H           5.13466680266828  -21.36501937953661    6.54459731268495
H           7.95626774013680  -21.97387053420670    3.55540531188362
H          11.26099271682023  -18.69145382751697    1.52314269478241
H          11.85809776531028  -15.86601735592476    0.47238411913789
H          13.33341142830382  -19.46462403515503    0.98891916665765
H          17.48033308324702  -19.86300881375059    2.41379430481217
H          18.17270671205246  -21.30870772575809    1.67588968954307
H          16.51027237046393  -21.32863160056252    2.26230062556302
H          15.86449576747502  -21.25872376650756   -2.17554027612459
H          15.42427868225982  -22.24758498737819   -0.78234606066776
H          17.08657204009412  -22.24397618678051   -1.36940561567590
H          19.78237467361962  -19.34748909355235   -1.36123934622617
H          20.17333620833324  -16.90857220106132   -2.23374135770441
