# ORCA input file
# SCF done       -256.401306055401          0.000313712405
! CAM-B3LYP def2-SVP def2/J RIJCOSX Grid4 TightSCF
%maxcore 5000
%tddft
    Mode sTDDFT
    Ethresh 5.0
    maxcore 5000
end

%pal
  nprocs 6
  end
* xyz 0 1
   C       21.08422        -0.58123        12.72334
   C       21.37144         0.21951        13.79344
   F       22.48098        -0.01612        14.51749
   C       20.54939         1.28871        14.17505
   C       19.41882         1.54488        13.45052
   C       19.07550         0.75210        12.33627
   C       19.92131        -0.33467        11.96790
   C       19.58579        -1.15924        10.86875
   C       18.44432        -0.90082        10.15863
   C       17.62059         0.20727        10.51347
   C       17.91334         1.01185        11.57700
   C       16.49136         0.28864         9.57378
   O       15.57088         1.07727         9.58321
   C       16.72464        -0.78067         8.56827
   C       17.81423        -1.61041         9.04717
   C       18.06637        -2.91164         8.70304
   C       17.24539        -3.68645         7.85666
   N       16.58928        -4.40098         7.24330
   C       19.13256        -3.66964         9.22866
   N       20.00422        -4.32038         9.59613
   C       15.99446        -0.77281         7.42661
   C       16.16772        -1.50451         6.20337
   C       15.01926        -1.84887         5.47978
   C       15.08489        -2.55505         4.29776
   C       16.32739        -2.88196         3.76502
   C       17.48446        -2.53352         4.50471
   C       17.42838        -1.85959         5.70136
   N       18.60258        -2.99063         3.84379
   C       19.95715        -2.84994         4.30034
   C       18.25629        -3.66635         2.70049
   O       19.07797        -4.14949         1.94916
   C       16.76313        -3.59605         2.58409
   C       16.03302        -4.06952         1.52377
   C       14.60297        -3.68021         1.24297
   O       13.90002        -2.86517         1.80487
   N       14.20334        -4.36803         0.13531
   C       12.92522        -4.19914        -0.50449
   C       15.24280        -5.11790        -0.36652
   C       16.39616        -4.95121         0.43963
   C       17.53671        -5.67375         0.08387
   C       17.54182        -6.42173        -1.07724
   C       16.42152        -6.49754        -1.92381
   C       15.22445        -5.90064        -1.48968
   C       16.52461        -7.07830        -3.23135
   C       15.77451        -6.69099        -4.30664
   C       15.85470        -7.14667        -5.65483
   C       15.04113        -6.49441        -6.53232
   C       14.25993        -5.47731        -5.93823
   S       14.59522        -5.39093        -4.22604
   C       13.30843        -4.60031        -6.41996
   C       12.73332        -4.39237        -7.69252
   C       11.79332        -3.40586        -7.71450
   C       11.56259        -2.76496        -6.46246
   S       12.62208        -3.47912        -5.26318
   C       10.62280        -1.80905        -6.18608
   C       10.35333        -1.20186        -4.91971
   C       11.27970        -1.20532        -3.85969
   C       10.96690        -0.74496        -2.60203
   C        9.69276        -0.23913        -2.36113
   C        8.80261        -0.10875        -3.45758
   C        9.10415        -0.57702        -4.71129
   N        7.66568         0.55009        -3.03088
   C        6.53288         0.87805        -3.85120
   C        7.77186         0.91236        -1.71014
   O        6.90075         1.50487        -1.10890
   C        9.07484         0.35976        -1.21407
   C        9.48921         0.35390         0.09406
   C       10.46379        -0.63529         0.66202
   O       11.01531        -1.56769         0.11404
   N       10.56183        -0.37394         2.00419
   C       11.45889        -1.06082         2.89400
   C        9.78837         0.71196         2.34696
   C        9.08690         1.17383         1.20436
   C        8.28723         2.30664         1.32175
   C        8.19804         2.93876         2.54391
   C        8.90605         2.48928         3.67194
   C        9.69065         1.32873         3.57029
   C        8.77146         3.23273         4.89046
   C        9.56291         3.32596         5.99186
   C        8.96931         3.92813         7.22135
   O        7.92123         4.52897         7.29458
   C        9.90212         3.60070         8.31235
   C        9.78800         3.87885         9.64381
   C       10.82980         3.50015        10.51868
   C       11.97250         2.83167         9.99054
   C       13.02224         2.47663        10.86037
   C       12.92018         2.78418        12.18796
   C       11.80280         3.43361        12.72994
   C       10.77471         3.78286        11.89879
   F       13.92897         2.46056        13.02284
   C       12.05988         2.54829         8.60728
   C       11.04064         2.93156         7.77548
   C       10.89718         2.86749         6.32224
   C       11.92471         2.62824         5.44426
   C       11.87778         2.95265         4.07264
   N       11.93349         3.27131         2.97130
   C       13.16054         2.06430         5.81141
   N       14.15039         1.52385         6.03100
   H       21.73744        -1.39920        12.46232
   H       20.82622         1.88425        15.03045
   H       18.76839         2.36171        13.72460
   H       20.24436        -1.97475        10.61484
   H       17.26320         1.83259        11.84090
   H       15.16730        -0.06832         7.42189
   H       14.05583        -1.57760         5.88292
   H       14.17696        -2.81812         3.78739
   H       18.32886        -1.57522         6.22439
   H       20.60152        -3.31752         3.55656
   H       20.09343        -3.34905         5.26269
   H       20.22183        -1.79514         4.39802
   H       12.31899        -5.10033        -0.39406
   H       13.06408        -3.98777        -1.56566
   H       12.41061        -3.35915        -0.03875
   H       18.42832        -5.61263         0.68292
   H       18.45118        -6.92269        -1.37434
   H       14.29617        -6.07695        -2.00463
   H       17.31863        -7.79248        -3.40490
   H       16.52171        -7.94506        -5.93032
   H       14.98851        -6.70957        -7.58531
   H       13.01873        -4.97858        -8.54841
   H       11.24521        -3.11538        -8.59397
   H        9.96490        -1.53577        -7.00218
   H       12.28668        -1.54186        -4.03701
   H       11.70166        -0.78296        -1.81752
   H        8.39819        -0.49834        -5.52420
   H        5.81313         1.39832        -3.22005
   H        6.07529        -0.02862        -4.25202
   H        6.82866         1.52868        -4.67723
   H       12.05390        -1.75928         2.30711
   H       10.90032        -1.60691         3.65724
   H       12.13059        -0.34741         3.37591
   H        7.73213         2.67495         0.47638
   H        7.58914         3.82526         2.63745
   H       10.18403         0.91886         4.43738
   H        7.85170         3.80670         4.97590
   H        8.91818         4.39516        10.02163
   H       13.89958         1.98116        10.47562
   H       11.77800         3.64693        13.78701
   H        9.90422         4.28727        12.29067
   H       12.94053         2.03963         8.24854
*
