# ORCA input file
# SCF done       -209.484402344871          0.000397403240
! CAM-B3LYP def2-SVP def2/J RIJCOSX Grid4 TightSCF
%maxcore 5000
%tddft
    Mode sTDDFT
    Ethresh 5.0
    maxcore 5000
end

%pal
  nprocs 6
  end
* xyz 0 1
   C       19.91039        -9.84193        -1.68867
   C       20.31716       -10.52911        -0.57884
   F       21.62786       -10.77548        -0.39559
   C       19.41725       -10.99417         0.38891
   C       18.08196       -10.75334         0.21933
   C       17.60731       -10.05061        -0.90654
   C       18.53892        -9.58735        -1.88055
   C       18.08469        -8.89210        -3.02661
   C       16.74543        -8.66750        -3.18504
   C       15.81927        -9.11790        -2.20013
   C       16.22875        -9.79726        -1.09016
   C       14.45463        -8.72223        -2.59999
   O       13.41159        -8.97020        -2.03569
   C       14.63142        -7.89115        -3.82059
   C       15.98861        -8.04944        -4.27075
   C       16.41975        -7.94158        -5.57137
   C       15.51850        -7.75286        -6.63408
   N       14.78543        -7.69939        -7.51682
   C       17.74656        -8.16104        -5.98286
   N       18.82131        -8.30812        -6.35998
   C       13.59328        -7.08259        -4.20128
   C       13.55303        -5.86901        -4.91942
   C       12.33801        -5.22183        -5.09634
   C       12.17296        -3.94059        -5.58722
   C       13.31879        -3.11441        -5.96989
   C       14.59777        -3.54942        -5.94030
   S       15.06648        -5.10826        -5.40769
   C       12.77052        -1.85329        -6.32676
   C       11.37624        -1.87824        -6.19317
   C       10.80786        -0.61490        -6.47746
   C       11.75430         0.29950        -6.81495
   S       13.36928        -0.32046        -6.80945
   C       10.97843        -3.18974        -5.75913
   C        9.68868        -3.70779        -5.54671
   C        8.50288        -3.10018        -5.83866
   C        7.22882        -3.68140        -5.62330
   C        6.06910        -3.02000        -5.98726
   C        4.77401        -3.49455        -5.81731
   C        4.54362        -4.77962        -5.14158
   C        5.52274        -5.60595        -4.71347
   S        7.19439        -5.27696        -4.87912
   C        3.13254        -4.92641        -5.05408
   C        2.51278        -3.82223        -5.63532
   C        1.10405        -3.91404        -5.58166
   C        0.70269        -5.05969        -4.97204
   S        2.00627        -6.07092        -4.44341
   C        3.51611        -2.92033        -6.13980
   C        3.17136        -1.73652        -6.82256
   C        4.00584        -0.90338        -7.50502
   C        3.63646         0.28079        -8.18533
   C        4.61893         1.03662        -8.80255
   C        4.41402         2.19161        -9.53835
   C        3.07461         2.77930        -9.63875
   C        1.96274         2.22361        -9.10545
   S        1.94629         0.74488        -8.23543
   C        3.24257         3.99420       -10.36087
   C        4.58600         4.16402       -10.69109
   C        4.81006         5.35498       -11.41519
   C        3.65542         6.04480       -11.60898
   S        2.25722         5.28307       -10.92872
   C        5.34320         3.03562       -10.20851
   C        6.72457         2.88106       -10.39250
   C        7.44546         1.73523       -10.15963
   C        8.83602         1.65353       -10.23949
   C        9.54464         0.51777        -9.89778
   C       10.96795         0.31990       -10.01649
   C       11.91823         1.26356       -10.33119
   C       13.30215         1.00613       -10.36707
   N       14.44272         0.86996       -10.39803
   C       11.66386         2.62006       -10.60776
   N       11.54109         3.74110       -10.83127
   C       11.25304        -1.07469        -9.68978
   C       10.03788        -1.70346        -9.29816
   C        8.94972        -0.71168        -9.34304
   O        7.81271        -0.88348        -8.92539
   C        9.98925        -3.01657        -8.93361
   C       11.18305        -3.77266        -8.91907
   C       12.40337        -3.14880        -9.30236
   C       12.41765        -1.79114        -9.69853
   C       13.59292        -3.90210        -9.26779
   C       13.57897        -5.21017        -8.86854
   C       12.37784        -5.82326        -8.48573
   C       11.20381        -5.12090        -8.51434
   H       20.63168        -9.50241        -2.41547
   H       19.79612       -11.53110         1.24400
   H       17.36881       -11.10193         0.95118
   H       18.80914        -8.54883        -3.74842
   H       15.51083       -10.14193        -0.36106
   H       12.64958        -7.35502        -3.73559
   H       11.46115        -5.77280        -4.78351
   H       15.42894        -2.93503        -6.24797
   H        9.76229        -0.37243        -6.42921
   H       11.60422         1.33063        -7.07097
   H        9.64853        -4.70881        -5.13572
   H        8.49901        -2.12262        -6.29600
   H        6.22205        -2.04723        -6.42824
   H        5.31357        -6.54818        -4.23205
   H        0.42069        -3.17982        -5.96817
   H       -0.30122        -5.39120        -4.79177
   H        2.11474        -1.49396        -6.81173
   H        5.05259        -1.14617        -7.59339
   H        5.62299         0.67104        -8.66069
   H        0.98909         2.67870        -9.19572
   H        5.76655         5.68847       -11.77436
   H        3.52563         6.97788       -12.12150
   H        7.25910         3.75350       -10.75150
   H        6.93084         0.82491        -9.91183
   H        9.37629         2.52443       -10.58635
   H        9.05408        -3.47602        -8.64873
   H       13.35819        -1.35315        -9.99250
   H       14.51558        -3.42284        -9.56204
   H       14.48909        -5.78889        -8.83876
   H       12.40071        -6.85432        -8.16864
   H       10.27312        -5.58562        -8.22095
*
