# ORCA input file
# SCF done       -192.524002252524          0.000521159165
! CAM-B3LYP def2-SVP def2/J RIJCOSX Grid4 TightSCF
%maxcore 5000
%tddft
    Mode sTDDFT
    Ethresh 5.0
    maxcore 5000
end

%pal
  nprocs 6
  end
* xyz 0 1
   C        8.69322         7.76639         7.48850
   C        8.46030         9.07317         7.81603
   F        8.96228         9.56811         8.96254
   C        7.71263         9.93140         6.99871
   C        7.19596         9.44648         5.82944
   C        7.40654         8.10751         5.44188
   C        8.16792         7.24978         6.28831
   C        8.38636         5.90009         5.92395
   C        7.86638         5.43153         4.74876
   C        7.11941         6.29784         3.89830
   C        6.88417         7.60011         4.23074
   C        6.71459         5.56162         2.68377
   O        6.03183         5.95630         1.76583
   C        7.38380         4.23958         2.79571
   C        7.89951         4.10599         4.13720
   C        8.11384         2.92481         4.80224
   C        7.81811         1.66652         4.24030
   N        7.53340         0.63431         3.82479
   C        8.54934         2.84603         6.13872
   N        8.92246         2.73304         7.21867
   C        7.50956         3.44928         1.69119
   C        8.44064         2.42712         1.43256
   C        8.35807         1.50970         0.38450
   C        9.47523         0.65748         0.29917
   S        9.65707        -0.68133        -0.82690
   C        7.91363        -0.96795        -1.26899
   C        7.30568         0.27647        -1.87194
   S        6.90192         1.49995        -0.58146
   C       10.44421         0.94732         1.25437
   S        9.94995         2.25429         2.28527
   C       11.69896         0.30964         1.48043
   C       12.39581        -0.35473         0.50088
   C       13.59193        -1.03664         0.70382
   C       14.23219        -1.08614         2.01910
   C       13.74998        -0.45844         3.11525
   S       12.29392         0.44693         3.13240
   C       15.40141        -1.87307         1.83271
   C       15.49564        -2.29021         0.50048
   C       16.65195        -3.07369         0.28354
   C       17.37909        -3.22604         1.42126
   S       16.70364        -2.43175         2.80118
   C       14.36686        -1.76424        -0.22557
   C       14.02394        -1.89047        -1.58724
   C       14.68773        -2.60535        -2.53480
   C       14.34447        -2.70277        -3.90247
   C       13.25786        -2.22707        -4.64392
   C       13.37439        -2.49373        -6.01895
   S       12.16400        -2.18487        -7.24722
   C       11.24415        -0.82150        -6.46999
   C       10.65675        -1.27158        -5.15591
   S       11.92972        -1.38388        -3.85526
   C       14.53738        -3.19220        -6.36143
   S       15.45281        -3.56550        -4.92580
   C       15.04827        -3.66013        -7.58308
   C       14.87069        -3.28600        -8.89067
   C       15.26530        -4.26535        -9.94117
   O       15.86833        -5.30178        -9.77245
   C       14.73059        -3.72428       -11.20510
   C       14.72758        -4.28313       -12.44939
   C       14.12929        -3.57901       -13.51965
   C       13.54499        -2.30293       -13.27410
   C       12.94667        -1.60847       -14.34290
   C       12.94043        -2.17055       -15.58925
   C       13.50978        -3.42335       -15.85131
   C       14.09474        -4.11127       -14.82420
   F       12.36856        -1.50711       -16.61199
   C       13.57118        -1.74510       -11.97368
   C       14.15672        -2.44545       -10.95527
   C       14.34524        -2.12100        -9.54295
   C       14.20563        -0.86480        -8.99931
   C       14.63842        -0.51583        -7.70841
   N       14.98008        -0.18032        -6.66370
   C       13.66609         0.24235        -9.68076
   N       13.19663         1.17707       -10.15617
   H        9.27085         7.13365         8.14409
   H        7.56164        10.95321         7.30881
   H        6.61671        10.08813         5.18256
   H        8.97053         5.27212         6.57827
   H        6.30829         8.23783         3.57694
   H        6.85747         3.70349         0.85902
   H        7.37167        -1.29071        -0.37976
   H        7.94520        -1.78192        -1.99321
   H        6.34990         0.06024        -2.34976
   H        7.97860         0.73614        -2.59684
   H       11.99401        -0.31790        -0.50062
   H       14.24995        -0.48749         4.07057
   H       16.94899        -3.50802        -0.65286
   H       18.29588        -3.76888         1.54391
   H       13.14180        -1.34617        -1.88397
   H       15.58002        -3.14871        -2.26175
   H       10.46548        -0.56089        -7.18678
   H       11.92407         0.02232        -6.34281
   H       10.16171        -2.23865        -5.25270
   H        9.94867        -0.53841        -4.76836
   H       15.71137        -4.51721        -7.47931
   H       15.17504        -5.25122       -12.61784
   H       12.50071        -0.63992       -14.17837
   H       13.47460        -3.81704       -16.85471
   H       14.54020        -5.07868       -15.00136
   H       13.11703        -0.77958       -11.81677
*
