# ORCA input file
# SCF done       -200.129469110299          0.000545918998
! CAM-B3LYP def2-SVP def2/J RIJCOSX Grid4 TightSCF
%maxcore 5000
%tddft
    Mode sTDDFT
    Ethresh 5.0
    maxcore 5000
end

%pal
  nprocs 6
  end
* xyz 0 1
   C       -2.48877         2.33711        -3.31950
   C       -2.47360         2.36424        -4.70653
   C       -3.28511         1.51906        -5.44921
   C       -4.14460         0.62696        -4.82513
   C       -4.16762         0.59166        -3.44160
   C       -3.33403         1.44320        -2.68200
   C       -3.54626         1.17038        -1.26474
   C       -2.98255         1.86151        -0.22276
   C       -2.11842         2.96498        -0.38011
   N       -1.41155         3.86818        -0.43140
   C       -3.20351         1.60317         1.14515
   N       -3.33428         1.45037         2.27645
   C       -4.43528         0.02220        -1.18809
   C       -4.97344        -0.19529        -2.52138
   C       -6.18508        -0.76625        -2.81564
   C       -7.08852        -1.22703        -1.83611
   N       -7.86852        -1.56446        -1.06369
   C       -6.70959        -0.87017        -4.11889
   N       -7.17871        -0.99659        -5.15899
   C       -4.63004        -0.74261        -0.06428
   C       -5.05078        -2.07963         0.02402
   C       -5.47910        -2.70591         1.19579
   C       -5.76137        -4.04292         1.01417
   C       -5.51026        -4.47717        -0.29559
   S       -4.94929        -3.22387        -1.31369
   C       -5.79417        -5.85158        -0.38667
   C       -6.23903        -6.31019         0.85731
   C       -6.27445        -5.18260         1.86214
   C       -7.70631        -4.90469         2.33097
   C       -5.35459        -5.46055         3.05364
   C       -6.53117        -7.66344         0.85985
   C       -6.31355        -8.25703        -0.37959
   S       -5.74260        -7.09795        -1.56492
   C       -6.48011        -9.62278        -0.74696
   C       -6.80876       -10.61248         0.15231
   C       -6.94477       -11.96152        -0.16330
   C       -6.72909       -12.45051        -1.52810
   C       -6.41002       -11.65843        -2.57454
   S       -6.20643        -9.96105        -2.45326
   C       -6.91195       -13.85763        -1.45586
   C       -7.20816       -14.23647        -0.14355
   C       -7.43028       -15.62933        -0.04434
   C       -7.28688       -16.24948        -1.24474
   S       -6.88499       -15.18341        -2.54601
   C       -7.22978       -13.05525         0.68320
   C       -7.48188       -12.96395         2.06954
   C       -7.48625       -14.00913         2.94191
   C       -7.75445       -13.90654         4.32499
   C       -8.23968       -12.82646         5.05991
   C       -8.36997       -13.11685         6.40505
   C       -7.97584       -14.42315         6.72396
   S       -7.46262       -15.30466         5.34471
   C       -8.12273       -14.62749         8.10613
   C       -8.62598       -13.44910         8.68850
   C       -8.84144       -12.38441         7.63948
   C      -10.32913       -12.03161         7.53394
   C       -8.00118       -11.13456         7.91136
   C       -8.83824       -13.56905        10.04085
   C       -8.49247       -14.83494        10.53031
   S       -7.86716       -15.86845         9.24871
   C       -8.50731       -15.33069        11.83826
   C       -9.19000       -14.83128        12.92818
   C       -8.79392       -15.04943        14.30832
   C       -7.82552       -15.90121        14.77851
   C       -7.02918       -16.76442        13.99898
   N       -6.33399       -17.48905        13.44031
   C       -7.49383       -16.04807        16.14128
   N       -7.16845       -16.22365        17.22855
   C       -9.59039       -14.14260        15.12788
   C      -10.50714       -13.46322        14.29544
   C      -11.36983       -12.51584        14.82024
   C      -11.31669       -12.25178        16.18091
   C      -10.42593       -12.92624        17.00223
   C       -9.55563       -13.87600        16.48698
   C      -10.35880       -13.97266        12.93933
   C      -11.31172       -13.86735        11.95494
   C      -12.45543       -13.05051        12.04563
   N      -13.38562       -12.37669        12.03475
   C      -11.32219       -14.61219        10.75950
   N      -11.42849       -15.21876         9.78978
   H       -1.84840         2.99958        -2.76090
   H       -1.81537         3.05370        -5.21283
   H       -3.24886         1.55359        -6.52734
   H       -4.76752        -0.03033        -5.41010
   H       -4.35550        -0.30697         0.88796
   H       -5.59359        -2.16214         2.11609
   H       -8.34568        -4.68455         1.47953
   H       -7.71743        -4.05014         3.00224
   H       -8.10365        -5.77027         2.85522
   H       -4.34112        -5.65954         2.71259
   H       -5.71205        -6.32456         3.60820
   H       -5.33626        -4.60077         3.71815
   H       -6.89095        -8.20221         1.71651
   H       -6.95138       -10.31382         1.18027
   H       -6.25514       -12.04257        -3.57030
   H       -7.69757       -16.16061         0.85018
   H       -7.39665       -17.29480        -1.45794
   H       -7.65369       -11.96961         2.45862
   H       -7.22556       -14.99400         2.58616
   H       -8.49625       -11.88543         4.60924
   H      -10.92013       -12.93276         7.38806
   H      -10.49782       -11.36019         6.69571
   H      -10.66367       -11.54497         8.44677
   H       -6.94690       -11.39342         7.98124
   H       -8.30994       -10.67265         8.84574
   H       -8.13200       -10.41539         7.10659
   H       -9.18611       -12.77697        10.68005
   H       -7.85040       -16.17253        12.01197
   H      -12.06391       -11.98182        14.19181
   H      -11.97912       -11.51130        16.60258
   H      -10.40437       -12.70973        18.05939
   H       -8.87001       -14.38749        17.14178
*
