# ORCA input file
# SCF done       -209.953686605439          0.000716194755
! CAM-B3LYP def2-SVP def2/J RIJCOSX Grid4 TightSCF
%maxcore 5000
%tddft
    Mode sTDDFT
    Ethresh 5.0
    maxcore 5000
end

%pal
  nprocs 6
  end
* xyz 0 1
   C       -1.14298        -2.19509         0.96167
   C       -1.04282        -2.70866        -0.30671
   C       -0.15767        -3.74500        -0.67057
   N        0.53539        -4.58639        -1.03084
   C       -1.76683        -2.26910        -1.43479
   N       -2.30039        -1.96406        -2.40547
   C       -0.31282        -2.58877         2.09373
   C       -0.61145        -1.74205         3.18759
   C        0.01293        -1.85168         4.40603
   C        0.97993        -2.85123         4.55385
   C        1.26862        -3.69840         3.45721
   C        0.63807        -3.58418         2.22440
   S        2.48774        -4.86964         3.85873
   C        2.59293        -4.21308         5.47081
   C        1.75901        -3.17090         5.69930
  Br        3.79152        -4.96779         6.69971
   C       -1.66470        -0.78383         2.80010
   O       -2.14919         0.06221         3.52113
   C       -2.02164        -1.12583         1.40322
   C       -3.08290        -0.65990         0.67255
   C       -3.97398         0.39888         0.92291
   C       -3.95466         1.45061         1.83224
   C       -5.05664         2.28132         1.69791
   C       -5.94472         1.86875         0.67478
   S       -5.39630         0.47910        -0.13436
   C       -7.05027         2.74460         0.66136
   C       -6.87350         3.71446         1.66728
   C       -5.59967         3.47014         2.33141
   C       -5.03102         4.22148         3.31659
   C       -3.76047         3.93849         3.86428
   N       -2.72464         3.74938         4.31669
   C       -5.66459         5.36986         3.83892
   N       -6.17645         6.30549         4.25933
   C       -7.93744         4.60585         1.75802
   C       -8.92899         4.32569         0.82728
   S       -8.52535         2.94652        -0.18105
   C      -10.16772         4.99267         0.67011
   C      -10.69363         5.98922         1.47770
   C      -11.96512         6.37756         1.06733
   C      -12.41403         5.68090        -0.07765
   S      -11.26246         4.54703        -0.63458
   C      -13.71319         6.11850        -0.39657
   C      -14.10332         7.08711         0.55630
   C      -13.00549         7.29493         1.49154
   C      -12.97192         8.17614         2.53203
   C      -11.84538         8.29551         3.37383
   N      -10.92417         8.38945         4.04946
   C      -14.04508         9.04993         2.81157
   N      -14.90557         9.77800         3.02047
   C      -15.39290         7.54927         0.37527
   C      -16.02098         6.95840        -0.72396
   S      -14.94428         5.82229        -1.54666
   C      -17.32331         7.13553        -1.20585
   C      -18.36705         7.74567        -0.54325
   C      -19.67490         7.94001        -1.04910
   C      -20.54680         8.49577        -0.15726
   C      -19.97471         8.75395         1.10464
   S      -18.28962         8.31025         1.11305
   C      -20.56270         9.24937         2.26012
   C      -21.88111         9.70236         2.46765
   C      -22.12539        10.09604         3.75293
   C      -21.01651         9.95950         4.61857
   S      -19.63858         9.33900         3.73770
   C      -20.96547        10.22892         5.97306
   C      -19.82235         9.98411         6.73102
   C      -19.69318        10.21119         8.08374
   C      -18.53380         9.92394         8.89108
   C      -17.40156         9.24502         8.50360
   C      -16.30762         8.98884         9.35432
   N      -15.38468         8.74407         9.99302
   C      -17.17520         8.66897         7.23745
   N      -16.91651         8.14700         6.24647
   C      -18.79066        10.43665        10.23486
   C      -20.10915        10.97489        10.26990
   C      -20.72602        10.83986         8.93731
   O      -21.84740        11.18337         8.61629
   C      -20.63634        11.51752        11.40524
   C      -19.85286        11.55239        12.58147
   C      -18.53093        11.02361        12.55241
   C      -18.01270        10.46491        11.36049
   C      -17.75620        11.06651        13.72879
   C      -18.26191        11.60435        14.88119
   C      -19.56432        12.12376        14.90925
   C      -20.34281        12.09839        13.78364
   H       -0.23714        -1.18642         5.21748
   H        0.89148        -4.25713         1.42263
   H        1.69366        -2.64812         6.63599
   H       -3.30663        -1.19775        -0.24163
   H       -3.17082         1.57378         2.55690
   H       -8.00258         5.41708         2.45893
   H      -10.17564         6.39141         2.32849
   H      -15.85436         8.30063         0.98689
   H      -17.54593         6.71403        -2.17752
   H      -19.93309         7.66066        -2.05533
   H      -21.57970         8.70479        -0.36981
   H      -22.60782         9.72984         1.67547
   H      -23.06923        10.47060         4.10722
   H      -21.84718        10.62257         6.45784
   H      -18.96900         9.57854         6.20025
   H      -21.63988        11.91676        11.40744
   H      -17.00735        10.07519        11.37153
   H      -16.75398        10.66434        13.70189
   H      -17.66044        11.63209        15.77754
   H      -19.94804        12.54435        15.82686
   H      -21.34668        12.49740        13.79948
*
