# ORCA input file
# SCF done       -160.351588983177          0.003143948998
! CAM-B3LYP def2-SVP def2/J RIJCOSX Grid4 TightSCF
%maxcore 5000
%tddft
    Mode sTDDFT
    Ethresh 5.0
    maxcore 5000
end

%pal
  nprocs 6
  end
* xyz 0 1
   C       -2.73177        -1.86449         2.05454
   C       -2.07291        -1.71138         0.87269
   C       -1.70693        -0.36826         0.66132
   C       -2.10784         0.46591         1.71039
   S       -2.92605        -0.38863         2.94058
   C       -1.69813         1.79879         1.41254
   C       -1.03982         1.79271         0.17735
   C       -1.03374         0.43355        -0.34505
   C       -0.52918         0.01163        -1.54169
   C        0.08141         0.88330        -2.46885
   N        0.58278         1.56406        -3.24419
   C       -0.59286        -1.33740        -1.95075
   N       -0.64025        -2.42971        -2.29536
   C       -0.58443         3.05622        -0.20719
   C       -0.90764         4.02432         0.71996
   S       -1.76843         3.35740         2.09902
   C       -0.63527         5.42630         0.66984
   C       -0.25298         6.17912        -0.41875
   C       -0.11905         5.61197        -1.78762
   O       -1.02690         5.14846        -2.41942
   O        1.13120         5.64427        -2.29037
   C       -0.02029         7.55472        -0.09708
   C       -0.22275         7.79605         1.23767
   S       -0.69518         6.40270         2.11074
   C        0.34407         8.57055        -1.06679
   C        0.03784         8.47086        -2.39131
   C        0.39417         9.40465        -3.37355
   C        0.97155        10.70715        -3.00257
   C        1.34254        11.02988        -1.74649
   S        1.20292         9.96230        -0.40301
   C        1.02874        11.44502        -4.21780
   C        0.55126        10.65721        -5.26651
   C        0.60189        11.32501        -6.50880
   C        1.10482        12.58002        -6.37600
   S        1.54013        12.99825        -4.75093
   C        0.18032         9.36445        -4.75312
   C       -0.26704         8.27026        -5.55162
   C       -0.06850         6.97746        -5.20960
   C       -0.50702         5.79748        -5.88049
   C       -1.38853         5.56463        -6.92364
   C       -2.17410         6.60451        -7.62871
   O       -1.72774         7.61954        -8.08632
   O       -3.49746         6.34343        -7.72088
   C       -1.54769         4.16966        -7.20061
   C       -0.81283         3.38634        -6.34591
   S        0.07569         4.29450        -5.21604
   C       -2.31278         3.63045        -8.30136
   C       -2.51842         4.18537        -9.54230
   C       -3.28325         3.34986       -10.36854
   C       -3.65873         2.15975        -9.74083
   S       -3.06084         2.04787        -8.14539
   C       -4.44974         1.39601       -10.65092
   C       -4.56978         2.11238       -11.84433
   C       -3.82842         3.35641       -11.71959
   C       -3.65070         4.31179       -12.67605
   C       -4.23874         4.21290       -13.95433
   N       -4.71673         4.14520       -14.99447
   C       -2.84616         5.45378       -12.47188
   N       -2.17583         6.37448       -12.33913
   C       -5.34112         1.43050       -12.80558
   C       -5.78224         0.23379       -12.32970
   S       -5.27317        -0.09807       -10.70659
   H       -3.12516        -2.76881         2.47375
   H       -1.86414        -2.52006         0.19526
   H       -0.04026         3.24657        -1.11205
   H        1.77104         6.04220        -1.68562
   H       -0.13435         8.73520         1.74652
   H       -0.57210         7.63800        -2.70790
   H        1.78234        11.98073        -1.49002
   H        0.28027        10.90245        -7.44311
   H        1.25630        13.31365        -7.14366
   H       -0.73242         8.52265        -6.49207
   H        0.53704         6.76249        -4.34014
   H       -3.73636         5.50746        -7.29971
   H       -0.74424         2.31610        -6.35280
   H       -2.11942         5.13959        -9.83590
   H       -5.56091         1.79935       -13.79058
   H       -6.38654        -0.49362       -12.83345
*
