# ORCA input file
# SCF done       -229.620331802809          0.000508259584
! CAM-B3LYP def2-SVP def2/J RIJCOSX Grid4 TightSCF
%maxcore 5000
%tddft
    Mode sTDDFT
    Ethresh 5.0
    maxcore 5000
end

%pal
  nprocs 6
  end
* xyz 0 1
   C        0.38489         1.01592        -3.61396
   C        0.88467         1.06446        -4.88534
   F        1.53375         2.15526        -5.31242
   C        0.72545        -0.02814        -5.76095
   F        1.22634         0.04624        -7.00144
   C        0.06813        -1.15493        -5.35280
   C       -0.45690        -1.23550        -4.04864
   C       -0.29716        -0.13141        -3.16210
   C       -0.81416        -0.18996        -1.84682
   C       -1.46666        -1.31964        -1.43006
   C       -1.61576        -2.41867        -2.32166
   C       -1.13379        -2.39069        -3.59817
   C       -2.32463        -3.50666        -1.62827
   O       -2.64199        -4.58181        -2.10974
   C       -2.54932        -3.04205        -0.25717
   C       -2.08778        -1.67096        -0.15416
   C       -2.23849        -0.82172         0.91107
   C       -2.89983        -1.13210         2.11811
   N       -3.43639        -1.30461         3.11862
   C       -1.77506         0.51076         0.92675
   N       -1.41921         1.59955         1.00103
   C       -3.02052        -3.81358         0.77731
   C       -3.46487        -5.14213         0.78441
   C       -3.80088        -5.80414         1.97319
   C       -4.20356        -7.10696         1.75989
   C       -4.20706        -7.44797         0.38194
   S       -3.67759        -6.18293        -0.62687
   C       -4.61702        -8.79435         0.26767
   C       -4.86116        -9.30999         1.55478
   C       -4.61434        -8.26477         2.53501
   C       -4.73235        -8.37203         3.89063
   C       -5.12648        -9.57774         4.50671
   N       -5.44525       -10.56499         4.99679
   C       -4.46265        -7.29352         4.75948
   N       -4.24284        -6.42169         5.47034
   C       -5.25387       -10.64315         1.54525
   C       -5.31684       -11.15877         0.25856
   S       -4.89357        -9.96003        -0.95401
   C       -5.65947       -12.49002        -0.11627
   C       -5.70197       -13.51467         0.80189
   C       -6.01247       -14.83793         0.50626
   C       -6.22544       -15.27036        -0.88182
   C       -6.24132       -14.43159        -1.94081
   S       -6.00689       -12.73636        -1.82114
   C       -6.35641       -16.68517        -0.82132
   C       -6.22631       -17.11198         0.50199
   C       -6.34028       -18.51430         0.62332
   C       -6.54611       -19.10225        -0.58400
   S       -6.61410       -17.98870        -1.90892
   C       -6.03976       -15.96697         1.35220
   C       -5.89344       -16.04443         2.75747
   C       -6.11703       -15.03725         3.64575
   C       -5.86891       -15.11781         5.03592
   C       -5.24979       -16.13252         5.75848
   C       -5.15654       -15.82726         7.10925
   C       -5.70908       -14.56977         7.43429
   S       -6.33327       -13.76889         6.06263
   C       -5.55881       -14.35705         8.82263
   C       -4.90472       -15.48146         9.37814
   C       -4.62416       -16.43216         8.32064
   C       -3.96895       -17.62351         8.43952
   C       -3.47755       -18.07153         9.68343
   N       -3.08820       -18.42435        10.70281
   C       -3.74804       -18.46989         7.33401
   N       -3.58014       -19.15793         6.43193
   C       -4.68333       -15.36127        10.74046
   C       -5.15974       -14.15891        11.24913
   S       -5.91955       -13.17824         9.99469
   C       -5.15163       -13.70348        12.58062
   C       -4.39580       -14.15237        13.62666
   C       -4.86101       -13.88111        15.01387
   O       -5.74058       -13.11996        15.34595
   C       -4.06423       -14.77981        15.87401
   C       -4.18213       -15.01704        17.21290
   C       -3.32323       -15.96050        17.82100
   C       -2.36224       -16.64785        17.02404
   C       -1.51557       -17.59441        17.63486
   C       -1.61504       -17.84386        18.97481
   C       -2.56452       -17.16272        19.76238
   C       -3.40156       -16.24074        19.19907
   F       -2.64115       -17.42860        21.07394
   F       -0.80779       -18.74226        19.55483
   C       -2.25942       -16.37659        15.64024
   C       -3.09236       -15.44823        15.07683
   C       -3.19468       -14.95230        13.70553
   C       -2.18904       -15.02949        12.77553
   C       -2.20327       -14.35612        11.53935
   N       -2.15928       -13.81062        10.52977
   C       -0.97495       -15.71525        12.98739
   N        0.03269       -16.25053        13.10963
   H        0.51516         1.86163        -2.95695
   H       -0.04511        -1.98315        -6.03470
   H       -0.67270         0.66123        -1.20095
   H       -1.26312        -3.23895        -4.25303
   H       -3.03225        -3.35857         1.76066
   H       -3.73387        -5.32368         2.93347
   H       -5.49857       -11.20592         2.42624
   H       -5.41624       -13.27328         1.81341
   H       -6.40696       -14.77313        -2.95033
   H       -6.27215       -19.06178         1.54555
   H       -6.66695       -20.14712        -0.79310
   H       -5.60651       -17.01563         3.13836
   H       -6.54685       -14.10676         3.30484
   H       -4.88040       -17.03584         5.30984
   H       -4.24199       -16.12259        11.35751
   H       -5.88959       -12.95061        12.84003
   H       -4.92107       -14.49420        17.80079
   H       -0.78137       -18.12195        17.04627
   H       -4.12324       -15.72849        19.81592
   H       -1.53260       -16.91931        15.05730
*
