# ORCA input file
# SCF done       -247.322172588756          0.000648438730
! CAM-B3LYP def2-SVP def2/J RIJCOSX Grid4 TightSCF
%maxcore 5000
%tddft
    Mode sTDDFT
    Ethresh 5.0
    maxcore 5000
end

%pal
  nprocs 6
  end
* xyz 0 1
   C        0.86541        -0.00928        -2.40167
   C        1.92045        -0.27666        -3.23418
   C        1.85177        -0.20952        -4.64279
   N        1.85677        -0.17863        -5.78933
   C        3.17175        -0.74680        -2.78949
   N        4.19836        -1.14947        -2.47008
   C       -0.50429         0.24066        -2.85492
   C       -1.39091        -0.03682        -1.79737
   C       -2.75690         0.07120        -1.95143
   C       -3.24848         0.47893        -3.19065
   C       -2.36995         0.78360        -4.23596
   C       -0.99333         0.66662        -4.07891
   C       -2.92051         1.32459        -5.52953
   O       -3.20328         2.48131        -5.68796
   O       -2.96383         0.38173        -6.46136
   C       -3.51578         0.77083        -7.71379
   C       -4.70794         0.58225        -3.45815
   O       -5.18148         0.64233        -4.56603
   O       -5.43231         0.59017        -2.33906
   C       -6.83953         0.69122        -2.51150
   C       -0.61653        -0.40611        -0.59254
   O       -1.03481        -0.75758         0.48482
   C        0.81083        -0.19834        -0.96860
   C        1.74171        -0.14497         0.02759
   C        3.04260         0.39461         0.00366
   C        3.61404         1.26653        -0.91471
   C        4.91749         1.60143        -0.58124
   C        5.35470         0.99129         0.61605
   S        4.15027         0.02103         1.32384
   C        6.69112         1.38737         0.85228
   C        7.10412         2.23543        -0.19299
   C        6.00438         2.38682        -1.13384
   C        5.99890         3.08426        -2.30632
   C        7.12326         3.80854        -2.75355
   N        8.04155         4.39921        -3.10377
   C        4.85808         3.11295        -3.13620
   N        3.92029         3.12773        -3.79570
   C        8.41291         2.68252        -0.04744
   C        9.00749         2.19093         1.10485
   S        7.91949         1.14728         2.01455
   C       10.32388         2.45501         1.57702
   C       10.80116         1.95379         2.76719
   C       12.07056         2.19579         3.27998
   C       13.03230         3.03256         2.56041
   C       12.78167         3.62254         1.37055
   S       11.29571         3.48140         0.52904
   C       14.19327         3.05855         3.38011
   C       13.98467         2.29998         4.53625
   C       15.12825         2.30300         5.36750
   C       16.13701         3.04271         4.83647
   S       15.75499         3.76577         3.31345
   C       12.65217         1.74973         4.49065
   C       11.99360         0.92747         5.42492
   C       12.48026         0.51902         6.63119
   C       11.77337        -0.31313         7.52546
   C       10.51785        -0.89732         7.37678
   C       10.15900        -1.65831         8.47895
   C       11.13878        -1.66771         9.49371
   S       12.50470        -0.72944         9.07001
   C       10.68113        -2.47365        10.55571
   C        9.40385        -2.98133        10.21508
   C        9.04059        -2.49024         8.90170
   C        7.90494        -2.77193         8.19857
   C        6.91204        -3.62734         8.72059
   N        6.11435        -4.32288         9.16177
   C        7.66088        -2.22345         6.92321
   N        7.46953        -1.76135         5.89081
   C        8.87706        -3.81722        11.18706
   C        9.72749        -3.96521        12.27625
   S       11.20063        -3.00985        12.08418
   C        9.54161        -4.69744        13.46190
   C        8.64896        -5.69636        13.73236
   C        7.82433        -6.54794        12.90661
   C        8.07901        -6.95851        11.62319
   C        7.29713        -7.90200        10.92292
   N        6.70903        -8.66762        10.30302
   C        9.21058        -6.56775        10.88163
   N       10.13100        -6.29855        10.24993
   C        6.80799        -7.14187        13.77822
   C        7.13450        -6.85659        15.11731
   C        8.34446        -6.00616        15.15552
   O        8.94477        -5.60798        16.12654
   C        6.37343        -7.33010        16.16473
   C        5.25389        -8.10580        15.86632
   C        4.91365        -8.37513        14.53656
   C        5.68362        -7.89496        13.48289
   C        3.65308        -9.14278        14.23594
   O        2.56640        -8.63349        14.18863
   O        3.92728       -10.41083        13.95659
   C        2.80542       -11.24878        13.70485
   C        4.40209        -8.69313        16.93412
   O        3.61914        -9.59169        16.74713
   O        4.60502        -8.12036        18.12122
   C        3.81957        -8.62183        19.19422
   H       -3.42641        -0.15683        -1.13729
   H       -0.33694         0.92166        -4.89549
   H       -3.01791         1.66882        -8.08460
   H       -4.58107         0.97514        -7.59391
   H       -3.35767        -0.06625        -8.38844
   H       -7.21763        -0.17777        -3.05383
   H       -7.08673         1.59244        -3.07590
   H       -7.26483         0.73447        -1.51239
   H        1.39299        -0.50886         0.98964
   H        3.07647         1.66920        -1.75336
   H        8.91886         3.33665        -0.73453
   H       10.11988         1.33206         3.33319
   H       13.50873         4.23446         0.86047
   H       15.22628         1.79170         6.30693
   H       17.11014         3.21469         5.25317
   H       11.00179         0.60200         5.14438
   H       13.45788         0.84025         6.95376
   H        9.90786        -0.77071         6.50207
   H        7.90151        -4.26620        11.14281
   H       10.14134        -4.38890        14.31330
   H        6.64058        -7.11256        17.18667
   H        5.38948        -8.10310        12.46668
   H        2.17090       -10.81056        12.93215
   H        2.22537       -11.36533        14.62187
   H        3.20761       -12.20447        13.37946
   H        4.05876        -8.00721        20.05798
   H        4.06563        -9.66817        19.38637
   H        2.75780        -8.54968        18.95066
*
