# ORCA input file
# SCF done       -237.439892729915          0.000906264248
! CAM-B3LYP def2-SVP def2/J RIJCOSX Grid4 TightSCF
%maxcore 5000
%tddft
    Mode sTDDFT
    Ethresh 5.0
    maxcore 5000
end

%pal
  nprocs 6
  end
* xyz 0 1
   C        0.72111         0.56093        -0.57644
   C       -0.59361         0.96076        -0.60013
   C       -1.64364         0.17859        -1.11894
   N       -2.53713        -0.39715        -1.55498
   C       -1.07144         2.16545        -0.05172
   N       -1.52603         3.12192         0.39347
   C        1.18512        -0.78389        -0.91355
   C        2.47783        -0.97190        -0.34470
   C        3.15444        -2.14961        -0.47051
   C        2.56330        -3.20982        -1.19522
   C        1.27798        -3.02368        -1.77972
   C        0.59684        -1.79342        -1.62521
   C        0.70281        -4.08529        -2.50658
   C        1.36271        -5.27561        -2.64860
   C        2.62817        -5.45819        -2.07220
   C        3.21525        -4.44731        -1.36047
   C        2.89653         0.27432         0.32330
   O        3.90905         0.47560         0.95710
   C        1.83477         1.26636         0.00713
   C        2.10012         2.58984         0.22960
   C        1.48907         3.73379        -0.30981
   C        0.66179         3.87623        -1.42060
   C        0.27923         5.18108        -1.66603
   C        0.81339         6.07013        -0.73055
   S        1.81981         5.29323         0.41859
   C        0.46372         7.43374        -0.85479
   C       -0.41245         7.79154        -1.87537
  Ge       -0.93208         6.16478        -2.86581
   C       -0.34873         6.18781        -4.76348
   C       -2.81890         5.63111        -2.59235
   C       -0.65070         9.16162        -1.90243
   C        0.03166         9.85609        -0.91907
   S        0.98385         8.78843         0.07350
   C        0.05170        11.26141        -0.69455
   C       -0.59069        12.23511        -1.40766
   C       -0.31231        13.54819        -0.96014
   C       -0.81795        14.76600        -1.46031
   C       -1.71038        14.84149        -2.59918
   C       -2.75709        15.69942        -2.78103
   C       -3.37868        15.54827        -4.03956
   C       -2.81830        14.59400        -4.83669
   S       -1.49073        13.84559        -4.01444
   C       -3.20596        14.17834        -6.20824
  Cl       -4.73254        16.50060        -4.51333
   C       -0.39657        15.92404        -0.81414
   C        0.48268        15.92561         0.29706
   C        0.96434        14.70673         0.81638
   C        0.56401        13.55120         0.15447
   S        1.02568        11.93203         0.59586
   C        1.81510        14.63885         1.98686
   C        2.85759        13.79004         2.22473
   C        3.41346        13.95268         3.51241
   C        2.80665        14.90699         4.27502
   S        1.51701        15.64154         3.38344
   C        3.11517        15.32460         5.66599
  Cl        4.74872        13.01356         4.06019
   C        0.82204        17.23755         0.70170
   C        0.23222        18.21625        -0.04915
   S       -0.79987        17.54865        -1.29567
   C        0.39453        19.62444         0.07863
   C        1.18233        20.30233         0.99315
   C        1.14941        21.68243         0.83077
   C        0.32151        22.06765        -0.22070
   S       -0.41539        20.72094        -1.00442
   C        0.20705        23.44561        -0.51358
   C        0.95105        24.32650         0.28693
  Ge        1.95548        23.29489         1.63059
   C        1.37435        23.62467         3.49838
   C        3.92271        23.38165         1.39117
   C        0.77102        25.63203        -0.10734
   C       -0.10030        25.78611        -1.19613
   S       -0.71091        24.23222        -1.72939
   C       -0.38399        27.04105        -1.74532
   C       -1.20038        27.39474        -2.79290
   C       -1.40334        28.73882        -3.29161
   C       -0.79707        29.89221        -2.85738
   C       -1.04597        31.16881        -3.40135
   N       -1.19707        32.23819        -3.79271
   C        0.15688        29.98835        -1.82481
   N        0.93970        30.15789        -0.99982
   C       -2.37894        28.66345        -4.37657
   C       -2.75828        27.30198        -4.54996
   C       -2.02854        26.47297        -3.57729
   O       -2.11030        25.26197        -3.45630
   C       -3.66417        26.91606        -5.49389
   C       -4.24660        27.89646        -6.32908
   C       -3.87196        29.26056        -6.16541
   C       -2.92964        29.62852        -5.17628
   C       -4.45734        30.23011        -7.00418
   C       -5.37040        29.87163        -7.95864
   C       -5.73971        28.52811        -8.11777
   C       -5.18923        27.56135        -7.32029
   H        4.12996        -2.27275        -0.02399
   H       -0.37167        -1.67818        -2.08638
   H       -0.27341        -3.94094        -2.94602
   H        0.91238        -6.08349        -3.20583
   H        3.13573        -6.40336        -2.19477
   H        4.18980        -4.58194        -0.91416
   H        2.96227         2.76918         0.86589
   H        0.39107         3.04899        -2.05348
   H        0.69387         6.48119        -4.83640
   H       -0.94970         6.89188        -5.33051
   H       -0.46670         5.20176        -5.20232
   H       -3.01855         5.52457        -1.53065
   H       -3.00857         4.67777        -3.07597
   H       -3.49371         6.37301        -3.00802
   H       -1.29338         9.64429        -2.61679
   H       -1.24624        12.01430        -2.22802
   H       -3.10458        16.39393        -2.03925
   H       -4.07570        14.74632        -6.52863
   H       -3.44591        13.11593        -6.23558
   H       -2.39015        14.35601        -6.90854
   H        3.24743        13.09459         1.50529
   H        4.04208        14.85814         5.99023
   H        2.31579        15.02227         6.34293
   H        3.21710        16.40681         5.72999
   H        1.50074        17.45182         1.50490
   H        1.76142        19.80152         1.74824
   H        0.29366        23.55947         3.57539
   H        1.68783        24.61395         3.81709
   H        1.81708        22.89046         4.16443
   H        4.18553        23.18580         0.35641
   H        4.41165        22.64509         2.02128
   H        4.28870        24.36680         1.66315
   H        1.24695        26.47857         0.35803
   H        0.13943        27.84668        -1.24454
   H       -3.93379        25.87597        -5.60290
   H       -2.67025        30.67052        -5.07840
   H       -4.16977        31.26367        -6.87769
   H       -5.81311        30.62229        -8.59624
   H       -6.46237        28.26249        -8.87503
   H       -5.46949        26.52465        -7.43810
*
