# ORCA input file
# SCF done       -212.403488350898          0.000760672385
! CAM-B3LYP def2-SVP def2/J RIJCOSX Grid4 TightSCF
%maxcore 5000
%tddft
    Mode sTDDFT
    Ethresh 5.0
    maxcore 5000
end

%pal
  nprocs 6
  end
* xyz 0 1
   C        1.05976         3.51631         4.19815
   C        1.88678         4.51084         3.74313
   C        2.73482         5.26631         4.57694
   N        3.43132         5.91595         5.21760
   C        2.04167         4.81762         2.37632
   N        2.21270         5.06266         1.26761
   C        1.07003         2.96043         5.54619
   C        0.51063         1.64955         5.49703
   C        0.42385         0.86646         6.61165
   C        0.89150         1.37080         7.84645
   C        1.44004         2.68491         7.90336
   C        1.52283         3.47218         6.73171
   C        1.89979         3.17591         9.14209
   C        1.82457         2.40701        10.27148
   C        1.28360         1.11393        10.21492
   C        0.82749         0.60685         9.02839
   C        0.07145         1.35709         4.12040
   O       -0.39350         0.32991         3.68381
   C        0.25542         2.63752         3.37641
   C       -0.39622         2.82073         2.19648
   C       -0.75417         4.02214         1.54269
   C       -1.19370         4.13267         0.23181
   C       -1.54827         5.43615        -0.10026
   C       -1.41078         6.32823         0.98281
   S       -0.83397         5.56801         2.38910
   C       -1.81142         7.61731         0.56215
   C       -2.20129         7.54995        -0.78658
   C       -2.04797         6.17571        -1.24673
   C       -2.32527         5.69105        -2.49070
   C       -2.81902         6.51803        -3.52181
   N       -3.22662         7.19014        -4.35661
   C       -2.14808         4.33177        -2.82674
   N       -2.01297         3.22758        -3.10320
   C       -2.61570         8.78045        -1.29288
   C       -2.54169         9.78195        -0.33933
   S       -1.95002         9.19317         1.20630
   C       -2.88059        11.15014        -0.48172
   C       -2.77782        12.13792         0.48100
   C       -3.20511        13.37605         0.00657
   C       -3.63964        13.33184        -1.33048
   S       -3.51728        11.76541        -2.00193
   C       -4.05722        14.63182        -1.71079
   C       -3.88321        15.49724        -0.61740
   C       -3.34452        14.73620         0.49940
   C       -3.04463        15.19655         1.74710
   C       -3.22941        16.54601         2.11620
   N       -3.38327        17.64057         2.42024
   C       -2.53375        14.34914         2.75331
   N       -2.12295        13.66136         3.57351
   C       -4.27285        16.80709        -0.89001
   C       -4.74857        16.94927        -2.18109
   S       -4.70599        15.43503        -3.07388
   C       -5.24233        18.13309        -2.78410
   C       -5.77792        18.27883        -4.04934
   C       -6.17804        19.59407        -4.28495
   C       -5.94125        20.46127        -3.19326
   S       -5.21953        19.63423        -1.86633
   C       -6.39577        21.72284        -3.57061
   C       -6.90560        21.59660        -4.88840
   N       -6.76068        20.29793        -5.30358
   C       -7.41364        22.78060        -5.40709
   C       -7.29763        23.82736        -4.50139
   S       -6.54395        23.32957        -2.98585
   C       -7.69720        25.17248        -4.63993
   C       -8.32921        25.69822        -5.72884
   C       -8.70031        27.05449        -5.77820
   C       -9.36058        27.64984        -6.82178
   C       -9.76441        29.03810        -6.91199
   C       -9.52223        30.03347        -5.99859
   C       -9.94173        31.37087        -6.15469
   N      -10.25205        32.47428        -6.22288
   C       -8.82241        29.88526        -4.78338
   N       -8.26540        29.85688        -3.77910
   C      -10.47972        29.21097        -8.17292
   C      -10.50294        27.97177        -8.85789
   C       -9.80218        26.95288        -8.05082
   O       -9.63821        25.78771        -8.35431
   C      -11.10772        27.81127       -10.08054
   C      -11.72249        28.92773       -10.65681
   C      -11.69589        30.16162        -9.96495
   C      -11.08277        30.32395        -8.72878
   S      -12.51622        31.41028       -10.85279
   C      -12.87867        30.27273       -12.12362
   C      -12.41060        29.02241       -11.89743
  Br      -13.84153        30.84298       -13.62891
   H        0.00337        -0.12649         6.55378
   H        1.93211         4.46808         6.80223
   H        2.31792         4.17108         9.17995
   H        2.18194         2.79118        11.21511
   H        1.23015         0.52151        11.11602
   H        0.41037        -0.38833         8.97892
   H       -0.77748         1.91420         1.73498
   H       -1.22124         3.29300        -0.43909
   H       -2.95497         8.95783        -2.29773
   H       -2.40767        11.94758         1.47241
   H       -4.22475        17.62750        -0.19687
   H       -5.86881        17.46342        -4.74385
   H       -7.04006        19.92901        -6.19593
   H       -7.84533        22.89405        -6.38379
   H       -7.48200        25.82195        -3.79988
   H       -8.56531        25.07787        -6.57876
   H       -8.44352        27.65608        -4.91593
   H      -11.10792        26.85344       -10.57685
   H      -11.09179        31.28526        -8.24340
   H      -12.54442        28.19983       -12.57598
*
