# ORCA input file
# SCF done       -223.171962102896          0.000512721335
! CAM-B3LYP def2-SVP def2/J RIJCOSX Grid4 TightSCF
%maxcore 5000
%tddft
    Mode sTDDFT
    Ethresh 5.0
    maxcore 5000
end

%pal
  nprocs 6
  end
* xyz 0 1
   C        3.94418         2.23340        -1.05550
   C        3.77894         0.92113        -0.71925
   C        4.76195        -0.07507        -0.91194
   N        5.51941        -0.92555        -1.04882
   C        2.61126         0.38208        -0.13440
   N        1.70081        -0.11541         0.35510
   C        5.13305         2.83720        -1.63976
   C        4.88894         4.22379        -1.87496
   C        5.84357         5.04413        -2.40847
   C        7.10819         4.50929        -2.73537
   C        7.36091         3.12519        -2.50316
   C        6.35535         2.29988        -1.95180
   C        8.62886         2.60262        -2.83092
   C        9.60100         3.40631        -3.36147
   C        9.35112         4.76828        -3.58958
   C        8.13142         5.30813        -3.28366
   C        3.52783         4.55949        -1.45338
   O        2.95635         5.62727        -1.52746
   C        2.95670         3.29581        -0.89612
   C        1.73958         3.24836        -0.33321
   C        0.87728         4.42309        -0.23649
   C       -0.28120         4.52080        -1.00394
   C       -0.67127         3.47563        -1.96380
   O       -0.05753         2.48714        -2.24064
   S       -2.24604         3.92304        -2.68370
   C       -2.34976         5.46537        -1.76094
   O       -3.29600         6.19546        -1.82855
   C       -1.13792         5.61977        -0.94093
   C       -0.85775         6.72420        -0.11960
   C        0.31329         6.62848         0.65355
   C        1.13638         5.50697         0.61157
   C        2.32958         5.57314         1.47745
   O        3.15201         4.72658         1.66172
   S        2.37779         7.17956         2.26315
   C        0.85124         7.72526         1.49041
   O        0.41509         8.82574         1.64702
   C       -1.71998         7.90110        -0.07742
   C       -2.25151         8.36139         1.09448
   C       -3.10726         9.46156         1.17808
   C       -3.56142        10.17137        -0.01472
   C       -3.12842         9.89167        -1.26787
   S       -2.00990         8.65439        -1.62502
   C       -4.48785        11.14165         0.45607
   C       -4.60863        11.05422         1.84839
   C       -5.48985        12.03505         2.36049
   C       -6.00861        12.80533         1.36904
   S       -5.45297        12.38964        -0.21715
   C       -3.73716        10.00736         2.31449
   C       -3.47347         9.58919         3.64061
   C       -4.27435         9.86025         4.70094
   C       -4.03784         9.52039         6.06735
   C       -4.59030        10.34030         7.09057
   C       -5.45329        11.51157         6.85485
   O       -5.81843        11.99311         5.82181
   S       -5.95352        12.22180         8.43574
   C       -4.99687        11.04989         9.37695
   O       -4.91379        11.05619        10.56987
   C       -4.34899        10.11407         8.43990
   C       -3.56496         9.05257         8.89273
   C       -3.06429         8.21170         7.89977
   C       -3.29733         8.40094         6.53873
   C       -2.82044         7.26385         5.73072
   O       -2.95176         7.03370         4.56436
   S       -1.96809         6.07377         6.79649
   C       -2.30585         7.00472         8.27139
   O       -1.97210         6.67855         9.37322
   C       -3.29731         8.82109        10.31228
   C       -4.15694         8.14231        11.08752
   C       -4.08729         7.82644        12.50906
   C       -3.07180         8.15494        13.35958
   C       -3.04644         7.82020        14.73142
   N       -2.96983         7.57137        15.84875
   C       -1.91559         8.87270        12.98180
   N       -0.95968         9.45902        12.73926
   C       -5.30244         7.09776        12.84519
   C       -6.10096         6.94724        11.67154
   C       -5.42299         7.57863        10.53629
   O       -5.78428         7.64629         9.37980
   C       -7.30464         6.30053        11.69634
   C       -7.77632         5.76699        12.91532
   C       -6.98673         5.91549        14.09312
   C       -5.74491         6.58728        14.03838
   C       -7.46961         5.38119        15.30543
   C       -8.67274         4.73126        15.35373
   C       -9.44841         4.58476        14.19352
   C       -9.00997         5.09147        13.00035
   H        5.63466         6.09057        -2.57506
   H        6.57891         1.25812        -1.78487
   H        8.81689         1.55405        -2.65358
   H       10.56906         2.99714        -3.60816
   H       10.13026         5.38721        -4.00839
   H        7.93335         6.35573        -3.45655
   H        1.32570         2.32549         0.05097
   H       -2.03658         7.80738         1.99773
   H       -3.45963        10.44356        -2.13358
   H       -5.72905        12.18821         3.39640
   H       -6.70256        13.61693         1.46785
   H       -2.55206         9.04495         3.77636
   H       -5.16171        10.44453         4.51997
   H       -2.37241         9.22876        10.69751
   H       -7.89009         6.19920        10.79441
   H       -5.17115         6.68359        14.94655
   H       -6.86918         5.49601        16.19577
   H       -9.03406         4.32590        16.28681
   H      -10.39498         4.06861        14.25031
   H       -9.60263         4.98203        12.10397
*
