# ORCA input file
# SCF done       -176.228512122255          0.000760035305
! CAM-B3LYP def2-SVP def2/J RIJCOSX Grid4 TightSCF
%maxcore 5000
%tddft
    Mode sTDDFT
    Ethresh 5.0
    maxcore 5000
end

%pal
  nprocs 6
  end
* xyz 0 1
   O       -0.98608        -1.49000         2.21921
   N       -0.12042        -1.44258         3.23256
   C        1.02439        -1.00154         2.76836
   C        2.16576        -0.82707         3.58172
   N        3.10381        -0.67357         4.21735
   C        0.92278        -0.73653         1.36676
   C       -0.39300        -1.07323         1.09035
   C       -1.10808        -1.03904        -0.12231
   N       -1.69806        -1.01662        -1.10222
   C        1.93879        -0.23350         0.43347
   O        1.74166         0.01066        -0.72629
   O        3.10867        -0.09594         1.08800
   C        4.24563         0.35195         0.49024
   C        4.47993         0.85591        -0.75829
   C        5.83734         1.18941        -0.90878
   C        6.60064         0.92380         0.24405
   S        5.66400         0.26920         1.51993
   C        7.94284         1.28155        -0.00448
   C        8.03464         1.77703        -1.32174
   C        6.70147         1.75610        -1.92093
   C        6.34870         2.22004        -3.15534
   C        5.01901         2.16698        -3.62928
   N        3.94330         2.14297        -4.02403
   C        7.25581         2.84196        -4.03751
   N        7.95381         3.38565        -4.76792
   C        9.32108         2.12683        -1.69031
   C       10.24420         1.91639        -0.66089
   S        9.45701         1.27898         0.78714
   C       11.62869         2.12351        -0.62509
   C       12.44976         2.47121        -1.67575
   C       13.84810         2.68289        -1.60532
   C       14.43569         2.98237        -2.80172
   C       13.53084         3.01504        -3.87943
   S       11.91044         2.67139        -3.32699
   C       13.73761         3.26272        -5.22831
   C       14.90492         3.61042        -5.93465
   C       14.69883         3.79321        -7.27309
   C       13.36175         3.59228        -7.69332
   S       12.37736         3.15465        -6.31475
   C       12.86628         3.76779        -8.96757
   C       11.54205         3.56553        -9.37810
   C       10.48262         2.95598        -8.70056
   C        9.30285         3.00155        -9.41870
   C        9.42630         3.64870       -10.66493
   S       11.02892         4.16959       -10.95798
   C        8.15186         3.68210       -11.27218
   C        7.22105         3.06495       -10.41402
   C        7.91330         2.59143        -9.23606
   C        7.40859         1.87861        -8.18718
   C        8.21695         1.37689        -7.14530
   N        8.86034         0.91507        -6.31544
   C        6.04345         1.53241        -8.08910
   N        4.94094         1.23359        -7.99403
   C        5.91389         3.06150       -10.93002
   C        5.88023         3.66728       -12.15462
   S        7.43395         4.25699       -12.71747
   O        4.85862         3.89338       -13.02423
   C        3.56863         3.65285       -12.71745
   O        3.15592         3.22207       -11.67453
   C        2.72673         4.00324       -13.86827
   C        3.10470         4.46151       -15.16900
   N        2.03996         4.65940       -15.90913
   O        0.96645         4.36071       -15.17641
   C        1.34378         3.96437       -13.95162
   C        0.38237         3.59855       -12.98983
   N       -0.40698         3.30682       -12.21485
   C        4.41808         4.68055       -15.63985
   N        5.49191         4.84843       -15.99528
   H        3.71983         0.96804        -1.51000
   H        9.58186         2.52619        -2.65179
   H       12.11152         1.97042         0.33148
   H       14.37836         2.60635        -0.67247
   H       15.48655         3.16906        -2.93241
   H       15.85543         3.72747        -5.44564
   H       15.46884         4.06911        -7.97187
   H       13.55751         4.13866        -9.71286
   H       10.57900         2.48256        -7.74287
   H        5.04901         2.65208       -10.44035
*
