# ORCA input file
# SCF done       -210.214495449884          0.000765930985
! CAM-B3LYP def2-SVP def2/J RIJCOSX Grid4 TightSCF
%maxcore 5000
%tddft
    Mode sTDDFT
    Ethresh 5.0
    maxcore 5000
end

%pal
  nprocs 6
  end
* xyz 0 1
   C       -0.19942         2.53046       -11.52822
   S       -1.61375         3.09438       -10.70786
   C        0.41677         1.48520       -10.90914
   C       -0.24878         1.10860        -9.72736
   C       -0.12420         0.13240        -8.64203
   C        0.87802        -0.74711        -8.43720
   C        0.84096        -1.73005        -7.29169
   N       -0.08320        -2.83630        -7.51361
   C        2.04058        -0.85610        -9.38916
   N        1.60648        -1.36912       -10.68607
   C       -1.37986         1.89572        -9.50384
   C       -2.02157         1.45118        -8.32713
   S       -3.40894         1.85097        -7.42007
   C       -1.29782         0.37650        -7.78813
   C       -1.89263        -0.11698        -6.62438
   C       -3.04459         0.57005        -6.27608
   C       -3.92836         0.40026        -5.18164
   C       -3.80858        -0.52840        -4.20074
   C       -4.69805        -0.68917        -3.09698
   C       -5.80935         0.08088        -2.84729
   C       -6.67511        -0.08253        -1.76784
   C       -6.46189        -1.13715        -0.77180
   C       -5.43384        -2.01336        -0.80610
   S       -4.23332        -2.01248        -2.03029
   C       -7.53096        -0.99857         0.15334
   C       -8.35978         0.06084        -0.22347
   C       -9.43525         0.22577         0.67938
   C       -9.39381        -0.68660         1.68515
   S       -8.05827        -1.78256         1.58925
   C       -7.83329         0.64904        -1.43137
   C       -8.32996         1.73852        -2.17636
   C       -9.44794         2.47077        -1.92135
   C       -9.83744         3.54491        -2.76148
   O       -9.08038         3.85801        -3.82878
   C       -9.63981         4.91016        -4.49956
   C      -10.80534         5.28724        -3.83079
   C      -10.92564         4.41170        -2.71974
   C      -12.04561         4.48884        -1.75172
   F      -11.97008         3.57325        -0.76924
   F      -12.11568         5.68250        -1.13385
   F      -13.24593         4.30263        -2.33276
   O      -11.72782         6.23993        -4.04085
   C      -11.60736         7.10993        -5.14245
   C       -8.96336         5.37785        -5.65800
   C       -7.78299         4.84662        -6.06861
   C       -7.02757         5.24573        -7.20808
   C       -7.43736         6.15226        -8.15396
   C       -6.68738         6.56201        -9.25685
   C       -5.41072         5.90427        -9.58019
   C       -4.81115         4.98130        -8.79778
   S       -5.45676         4.45094        -7.30120
   C       -5.01352         6.44873       -10.83084
   C       -5.95416         7.38782       -11.25387
   C       -5.59969         7.97469       -12.48895
   C       -4.42899         7.47387       -12.96255
   S       -3.70465         6.28141       -11.93429
   C       -6.99713         7.49088       -10.26667
   C       -8.09341         8.38808       -10.35926
   C       -8.85957         8.79930        -9.31642
   C      -10.01564         9.61558        -9.38897
   S      -10.88775         9.92263        -7.89130
   C      -10.63853        10.20874       -10.47335
   C      -11.79138        10.91530       -10.12228
   C      -12.87334        11.67529       -10.76647
   C      -12.98445        12.01375       -12.06509
   C      -14.20346        12.68217       -12.63472
   N      -14.00105        14.12918       -12.63755
   C      -11.89919        11.76583       -13.07348
   N      -12.18224        10.52511       -13.79185
   C      -12.06155        10.82481        -8.74962
   C      -13.27276        11.48923        -8.47357
   S      -14.24066        11.84561        -7.10897
   C      -13.79568        11.99919        -9.66935
   C      -14.98569        12.70274        -9.45112
   C      -15.37402        12.71000        -8.12840
   C      -16.52903        13.30431        -7.51821
   C      -17.49031        13.96969        -8.15754
   H        0.08707         3.01766       -12.43912
   H        1.28199         0.99697       -11.31248
   H        0.54560        -1.22349        -6.37008
   H        1.83207        -2.16249        -7.13133
   H       -1.02232        -2.48309        -7.66501
   H        0.18322        -3.35417        -8.34463
   H        2.82566        -1.47741        -8.92589
   H        2.46197         0.14067        -9.55552
   H        1.20608        -2.29575       -10.58523
   H        2.39864        -1.44361       -11.31532
   H       -1.53655        -0.94011        -6.03377
   H       -4.75640         1.09507        -5.16421
   H       -2.97944        -1.22192        -4.23169
   H       -6.02257         0.87392        -3.54853
   H       -5.29587        -2.78019        -0.06041
   H      -10.20631         0.97031         0.60790
   H      -10.07991        -0.79242         2.50267
   H       -7.75478         2.01699        -3.04922
   H      -10.07904         2.25849        -1.07797
   H      -12.46371         7.77897        -5.07604
   H      -11.64988         6.56261        -6.08823
   H      -10.68702         7.69793        -5.08940
   H       -9.42015         6.18295        -6.20636
   H       -7.34705         4.05913        -5.47025
   H       -8.43775         6.54131        -8.04729
   H       -3.86979         4.52109        -9.05536
   H       -6.17286         8.72499       -13.00338
   H       -3.92413         7.73374       -13.87264
   H       -8.29682         8.77926       -11.34783
   H       -8.58218         8.50478        -8.31516
   H      -10.24151        10.10377       -11.46550
   H      -15.10109        12.35908       -12.08713
   H      -14.30912        12.36124       -13.67490
   H      -13.89396        14.46589       -11.68583
   H      -14.80336        14.59489       -13.04771
   H      -10.91524        11.78114       -12.58206
   H      -11.92568        12.58176       -13.80155
   H      -12.17078         9.74105       -13.14726
   H      -11.47594        10.36073       -14.50093
   H      -15.56722        13.20223       -10.20277
   H      -16.59140        13.17811        -6.44502
   H      -17.47724        14.11917        -9.22319
   H      -18.32697        14.38745        -7.62673
*
