# ORCA input file
# SCF done       -206.748648182730          0.000808253351
! CAM-B3LYP def2-SVP def2/J RIJCOSX Grid4 TightSCF
%maxcore 5000
%tddft
    Mode sTDDFT
    Ethresh 5.0
    maxcore 5000
end

%pal
  nprocs 6
  end
* xyz 0 1
   C       -3.00249        -4.28681         3.95966
   C       -4.23916        -3.70834         4.20492
   F       -4.63010        -3.52690         5.47074
   C       -5.08337        -3.31623         3.16501
   F       -6.26522        -2.75679         3.44897
   C       -4.71285        -3.50309         1.84274
   C       -3.48668        -4.08876         1.59682
   C       -2.62678        -4.47733         2.64000
   C       -1.39997        -5.02137         2.05718
   C       -0.18954        -5.11925         2.69139
   C       -0.00979        -4.90707         4.07361
   N        0.17452        -4.77237         5.19815
   C        1.02848        -5.33987         2.01115
   N        2.05313        -5.43413         1.50330
   C       -1.63070        -5.17255         0.63889
   C       -2.86759        -4.42570         0.29258
   O       -3.29472        -4.18988        -0.81223
   C       -0.98730        -5.91104        -0.31210
   C       -0.08635        -6.98454        -0.13768
   C        0.74872        -7.48422        -1.11768
   C        1.50189        -8.56714        -0.58032
   C        1.01876        -8.72557         0.78798
   C        0.08206        -7.80350         1.06513
   F        1.44342        -9.69079         1.61307
   C        2.48048        -9.31575        -1.20016
   C        3.28426       -10.33994        -0.64553
   C        4.14049       -10.82430        -1.62122
   C        3.87196       -10.09280        -2.86626
   C        2.90559        -9.20378        -2.60533
   F        2.36375        -8.34078        -3.46779
   C        5.12660       -11.82222        -1.52297
   C        5.46535       -12.47686        -0.37083
   C        6.46652       -13.45806        -0.28605
   S        7.35387       -13.99213        -1.68437
   C        8.31713       -15.08595        -0.72659
   C        7.93123       -15.04286         0.62014
   C        6.90436       -14.13181         0.86178
   C        6.30568       -13.91344         2.21534
   C        7.15697       -14.55208         3.31157
   C        7.59332       -15.97495         2.92265
   N        6.51033       -16.90036         2.64659
   C        8.50839       -15.90692         1.69407
   C        9.29521       -15.83484        -1.41075
   C       10.34130       -16.53232        -0.87670
   C       11.27325       -17.25978        -1.64406
   C       12.42317       -17.85419        -1.15475
   C       13.11325       -18.48713        -2.21959
   C       12.27937       -18.25419        -3.40731
   C       11.20206       -17.52510        -3.08635
   F       12.58623       -18.71711        -4.62267
   C       14.31969       -19.15272        -2.18818
   C       15.00864       -19.77923        -3.26412
   C       16.20876       -20.28474        -2.80156
   C       16.30661       -19.99039        -1.36989
   C       15.18863       -19.33373        -1.02387
   F       14.87763       -18.88774         0.19901
   C       17.17064       -20.93638        -3.60132
   C       18.37639       -21.40141        -3.16236
   C       19.32460       -22.08943        -3.94919
   C       19.48556       -22.16587        -5.30608
   C       20.27578       -23.30269        -5.85234
   O       20.97670       -24.06506        -5.22994
   C       19.97477       -23.32492        -7.30126
   C       19.17901       -22.21322        -7.62783
   C       18.73354       -22.03643        -8.92767
   C       19.10401       -22.97964        -9.87504
   C       19.90756       -24.07227        -9.54615
   C       20.35291       -24.25739        -8.24706
   F       20.24622       -24.95301       -10.49464
   F       18.67443       -22.83690       -11.13308
   C       18.98678       -21.39876        -6.42483
   C       18.63330       -20.07426        -6.43028
   C       18.68577       -19.24359        -5.29264
   N       18.73738       -18.52356        -4.40090
   C       18.24741       -19.36687        -7.58778
   N       17.90806       -18.75182        -8.49523
   H       -2.38417        -4.57566         4.79413
   H       -5.36415        -3.19996         1.03856
   H       -1.26956        -5.68724        -1.33628
   H        0.86180        -7.08255        -2.10560
   H       -0.48529        -7.71629         1.97090
   H        3.22799       -10.66860         0.37273
   H        4.38017       -10.25809        -3.79605
   H        5.66257       -12.07184        -2.43066
   H        4.95062       -12.22747         0.54566
   H        5.29603       -14.33966         2.22846
   H        6.20098       -12.84390         2.41004
   H        6.58973       -14.57641         4.24412
   H        8.05146       -13.94983         3.47935
   H        8.16361       -16.40567         3.75463
   H        5.96132       -16.58813         1.85363
   H        5.89459       -16.98515         3.44679
   H        8.65055       -16.92104         1.31618
   H        9.48199       -15.51007         1.99494
   H        9.21322       -15.79480        -2.48902
   H       10.52332       -16.51362         0.18644
   H       12.75350       -17.83049        -0.13489
   H       10.42188       -17.20751        -3.74891
   H       14.65545       -19.83132        -4.27546
   H       17.12274       -20.25357        -0.72756
   H       16.88516       -21.09927        -4.63307
   H       18.61016       -21.31799        -2.11069
   H       20.00962       -22.73198        -3.40177
   H       18.10873       -21.21157        -9.22919
   H       20.97165       -25.10225        -7.98999
*
