# ORCA input file
# SCF done       -224.332705500966          0.000553591563
! CAM-B3LYP def2-SVP def2/J RIJCOSX Grid4 TightSCF
%maxcore 5000
%tddft
    Mode sTDDFT
    Ethresh 5.0
    maxcore 5000
end

%pal
  nprocs 6
  end
* xyz 0 1
   C       -3.24925        -4.75928        -8.49201
   C       -2.87387        -4.18094        -9.69512
   F       -3.62304        -3.19497       -10.20060
   C       -1.73593        -4.59822       -10.38726
   F       -1.41350        -4.01128       -11.54579
   C       -0.93687        -5.61139        -9.88378
   C       -1.31121        -6.18591        -8.68502
   C       -2.45532        -5.77625        -7.98335
   C       -2.56972        -6.57917        -6.76688
   C       -3.63085        -6.54553        -5.90059
   C       -4.73369        -5.67475        -6.03807
   N       -5.65565        -4.99356        -6.09153
   C       -3.81032        -7.38124        -4.77645
   N       -4.05508        -8.02468        -3.85736
   C       -1.41353        -7.45638        -6.70025
   C       -0.61679        -7.25942        -7.93647
   O        0.41346        -7.79505        -8.27495
   C       -1.07804        -8.19957        -5.59790
   C       -0.06527        -9.16029        -5.39699
   C        0.29033        -9.60010        -4.13094
   C        1.33187       -10.56368        -4.24600
   C        1.55278       -10.71164        -5.68309
   C        0.74336        -9.89284        -6.37417
   F        2.44574       -11.56394        -6.19938
   C        2.02305       -11.19800        -3.23307
   C        3.08289       -12.12811        -3.34618
   C        3.53249       -12.46081        -2.07447
   C        2.71906       -11.72534        -1.09855
   C        1.83305       -10.99466        -1.78746
   F        0.90725       -10.17986        -1.27732
   C        4.58826       -13.30631        -1.70352
   C        5.32736       -14.05882        -2.58292
   C        6.43316       -14.83073        -2.20746
   S        7.11214       -14.59269        -0.62532
   C        8.51558       -15.55053        -0.95937
   C        8.38390       -16.17994        -2.22032
   C        7.21359       -15.76950        -2.93522
   C        6.94634       -16.35989        -4.19383
   C        5.70599       -16.07959        -4.99392
   F        4.57704       -16.21945        -4.27445
   F        5.67885       -14.83799        -5.51822
   F        5.57270       -16.90974        -6.03637
   C        7.82479       -17.29071        -4.70449
   C        8.93804       -17.72139        -3.99120
   C        9.21471       -17.21261        -2.73739
   O       10.20151       -17.66259        -1.94417
   C       10.99395       -18.75084        -2.36972
   C        9.53832       -15.47534         0.00334
   C       10.88379       -15.63385        -0.18712
   C       11.85007       -15.45409         0.81987
   C       11.68120       -15.15714         2.16414
   C       12.95217       -15.04388         2.77833
   C       13.92558       -15.30679         1.71003
   C       13.28951       -15.55095         0.55617
   F       15.24842       -15.30467         1.90244
   C       13.24461       -14.73071         4.09080
   C       14.52096       -14.55479         4.68988
   C       14.35527       -14.21805         6.02121
   C       12.91961       -14.18745         6.30922
   C       12.28197       -14.48366         5.16624
   F       10.95662       -14.56325         4.99546
   C       15.40180       -13.90911         6.91344
   C       15.25329       -13.63313         8.24192
   C       16.31240       -13.34161         9.12884
   C       17.56649       -12.85602         8.87874
   C       18.62240       -13.05132         9.90857
   O       18.46615       -13.42308        11.04748
   C       19.89669       -12.74370         9.22083
   C       19.62406       -12.26993         7.92570
   C       20.66545       -11.94552         7.07146
   C       21.96186       -12.09892         7.54031
   C       22.22437       -12.55673         8.83240
   C       21.18750       -12.88670         9.69053
   F       23.49093       -12.68308         9.24397
   F       22.98274       -11.80410         6.72905
   C       18.17225       -12.19717         7.74329
   C       17.54385       -11.42624         6.80018
   C       16.15651       -11.17692         6.77875
   N       15.04062       -10.91446         6.72828
   C       18.21911       -10.72360         5.78037
   N       18.71631       -10.14545         4.92286
   H       -4.13433        -4.39661        -7.99604
   H       -0.05446        -5.93626       -10.41174
   H       -1.66579        -8.01656        -4.70497
   H       -0.13175        -9.25197        -3.20791
   H        0.68911        -9.78023        -7.43692
   H        3.47445       -12.49217        -4.27502
   H        2.83394       -11.78611        -0.03404
   H        4.82040       -13.36378        -0.64670
   H        5.04629       -14.01766        -3.61933
   H        7.63124       -17.73379        -5.66840
   H        9.55956       -18.48521        -4.42644
   H       11.67486       -18.94968        -1.54392
   H       11.57105       -18.50107        -3.26467
   H       10.38504       -19.63836        -2.56063
   H        9.20911       -15.13109         0.97578
   H       11.25693       -15.86631        -1.17194
   H       10.74870       -15.02126         2.67409
   H       13.72572       -15.77432        -0.39786
   H       15.46024       -14.65247         4.18136
   H       12.47298       -13.95118         7.25384
   H       16.39977       -13.93775         6.49258
   H       14.27286       -13.72751         8.68625
   H       16.14392       -13.59564        10.17197
   H       20.51294       -11.59199         6.06478
   H       21.38831       -13.24256        10.68841
*
