# ORCA input file
# SCF done       -186.010291340013          0.000947891560
! CAM-B3LYP def2-SVP def2/J RIJCOSX Grid4 TightSCF
%maxcore 5000
%tddft
    Mode sTDDFT
    Ethresh 5.0
    maxcore 5000
end

%pal
  nprocs 6
  end
* xyz 0 1
   C       -0.79036        -3.36136        -4.80403
   C       -0.77761        -2.18050        -5.53330
   F       -1.36283        -2.15745        -6.73756
   C       -0.16986        -1.02542        -5.04490
   F       -0.18821         0.09521        -5.77921
   C        0.45800        -1.02488        -3.80853
   C        0.45640        -2.20216        -3.08902
   C       -0.16666        -3.36721        -3.56806
   C       -0.03286        -4.42203        -2.55787
   C       -0.82678        -5.54374        -2.50159
   C       -1.72056        -5.93207        -3.51819
   N       -2.44224        -6.32445        -4.32108
   C       -0.91074        -6.40274        -1.39140
   N       -1.04601        -7.13052        -0.51241
   C        0.86834        -3.93689        -1.55023
   C        1.07747        -2.48915        -1.77459
   O        1.66504        -1.71511        -1.05109
   C        1.57207        -4.54119        -0.53585
   C        1.88543        -5.88645        -0.31356
   N        2.48054        -6.29003         0.85784
   C        2.72206        -7.62381         0.85585
   C        3.21334        -8.26500         2.02432
   C        3.22162        -9.59978         2.24776
   C        3.69132       -10.22005         3.43642
   N        3.62741       -11.57935         3.60195
   C        4.13389       -11.92214         4.80568
   C        4.54223       -10.77415         5.44610
   C        4.26799        -9.70288         4.59269
   C        2.32975        -8.10978        -0.41688
   C        1.80531        -7.02897        -1.12101
   C        2.42346        -9.44127        -0.96446
   N        1.40650        -9.91368        -1.76332
   C        1.75080       -11.15203        -2.20970
   C        1.32534       -12.22969        -2.98683
   C        2.36061       -13.16514        -2.95133
   N        3.38860       -12.67554        -2.16590
   C        3.03603       -11.44711        -1.70507
   C        3.45540       -10.36957        -0.91536
   C        2.47368       -14.43767        -3.57530
   C        1.51680       -15.02680        -4.32580
   C        1.65234       -16.29820        -4.95637
   N        0.62222       -16.84388        -5.68392
   C        0.95089       -18.05400        -6.19461
   C        0.04354       -18.72745        -7.05416
   C        0.36920       -19.70326        -7.93633
   C       -0.55134       -20.44688        -8.72104
   N       -0.12503       -21.43208        -9.57502
   C       -1.18937       -22.03456       -10.14907
   C       -2.33375       -21.43897        -9.67120
   C       -1.94112       -20.44337        -8.77388
   C        2.27595       -18.33648        -5.75085
   C        2.69544       -17.19481        -5.01619
   C        3.12684       -19.45452        -5.87221
   C        2.94865       -20.78696        -6.15411
   C        4.14042       -21.57668        -6.54307
   O        5.30192       -21.24343        -6.46704
   C        3.60678       -22.84318        -7.10535
   C        2.20782       -22.85142        -6.97013
   C        1.46873       -23.91218        -7.46769
   C        2.15492       -24.94609        -8.08918
   C        3.54363       -24.93868        -8.20432
   C        4.28908       -23.87906        -7.70877
   F        4.16499       -25.96068        -8.80991
   F        1.45743       -25.97075        -8.59863
   C        1.79756       -21.63698        -6.26397
   C        0.55886       -21.42916        -5.70212
   C        0.30386       -20.41664        -4.76100
   N        0.07347       -19.63618        -3.95055
   C       -0.55535       -22.26085        -5.91855
   N       -1.50344       -22.88236        -6.10045
   H       -1.27258        -4.22840        -5.22501
   H        0.92915        -0.13230        -3.42921
   H        2.02610        -3.83492         0.15455
   H        2.62526        -5.68800         1.65283
   H        3.55696        -7.60268         2.80844
   H        2.82920       -10.25946         1.48658
   H        3.24473       -12.21670         2.92281
   H        4.17406       -12.94276         5.13159
   H        4.98763       -10.71718         6.41915
   H        4.46719        -8.66933         4.79196
   H        1.47625        -7.05318        -2.14117
   H        0.52750        -9.44201        -1.89195
   H        0.39975       -12.33174        -3.51535
   H        4.25779       -13.15460        -2.00606
   H        4.38883       -10.24247        -0.40391
   H        3.41002       -14.95798        -3.42297
   H        0.57178       -14.52260        -4.47115
   H       -0.26995       -16.39747        -5.82516
   H       -0.98940       -18.41307        -6.98228
   H        1.41486       -19.94121        -8.08362
   H        0.83984       -21.66655        -9.74148
   H       -1.07127       -22.83872       -10.84805
   H       -3.33912       -21.69875        -9.93474
   H       -2.59154       -19.79890        -8.21822
   H        3.65115       -17.09576        -4.54270
   H        4.17580       -19.20826        -5.71791
   H        0.39417       -23.96189        -7.40031
   H        5.36345       -23.87044        -7.79909
*
