# ORCA input file
# SCF done       -199.265963634665          0.000442022234
! CAM-B3LYP def2-SVP def2/J RIJCOSX Grid4 TightSCF
%maxcore 5000
%tddft
    Mode sTDDFT
    Ethresh 5.0
    maxcore 5000
end

%pal
  nprocs 6
  end
* xyz 0 1
   C        6.43581        -3.74596        -3.76899
   C        7.56109        -3.85291        -4.57017
   F        8.02458        -2.75936        -5.18493
   C        8.22211        -5.07051        -4.74888
   F        9.30362        -5.12477        -5.53328
   C        7.76985        -6.21758        -4.11859
   C        6.65209        -6.10958        -3.31322
   C        5.97401        -4.89134        -3.13591
   C        4.84072        -5.09701        -2.24041
   C        3.85578        -4.18780        -1.98328
   C        3.76226        -2.93245        -2.62080
   N        3.60193        -1.92196        -3.14104
   C        2.74762        -4.38422        -1.12848
   N        1.82385        -4.45128        -0.45074
   C        4.90078        -6.47777        -1.77643
   C        5.98641        -7.17148        -2.52815
   O        6.23932        -8.35151        -2.54163
   C        4.04694        -7.07812        -0.92058
   C        4.09678        -8.46135        -0.50368
   C        5.19964        -9.11177        -0.03217
   F        6.40382        -8.58364         0.14096
   S        4.90395       -10.71771         0.53441
   C        3.23943       -10.51869         0.10528
   F        2.39218       -11.52780         0.28919
   C        2.92503        -9.30107        -0.43220
   C        1.61053        -8.93221        -0.88566
   C        1.37735        -7.93594        -1.76099
   C        0.09577        -7.45813        -2.14817
   S       -1.37500        -8.21808        -1.60445
   C       -0.16723        -6.33920        -2.92652
   C        0.85714        -5.46037        -3.51898
   O        2.06527        -5.65909        -3.43452
   C        0.28982        -4.31882        -4.20860
   C        0.91858        -3.25333        -4.82223
   N       -0.02340        -2.43122        -5.33638
   C        0.23563        -1.22194        -6.07753
   C        0.07863        -1.45598        -7.57806
   C       -1.25485        -2.93851        -5.09720
   C       -1.10941        -4.11157        -4.38805
   C       -2.12234        -5.01820        -3.89736
   O       -3.31261        -4.91262        -4.15824
   C       -1.56346        -6.10006        -3.07182
   C       -2.34669        -7.02891        -2.40801
   C       -3.77775        -7.02702        -2.37631
   C       -4.55791        -8.11670        -2.30634
   C       -5.99945        -8.09371        -2.42297
   C       -6.79298        -9.04717        -1.85361
   F       -6.36768       -10.08038        -1.13059
   S       -8.49474        -8.82464        -2.08355
   C       -8.13400        -7.40299        -2.99443
   F       -9.14079        -6.74088        -3.55657
   C       -6.80043        -7.11499        -3.12875
   C       -6.25694        -6.03317        -3.90200
   C       -6.89116        -4.88497        -4.23584
   C       -6.16381        -3.85000        -4.87778
   C       -6.57172        -2.58889        -5.18718
   C       -5.73970        -1.75330        -6.08971
   O       -4.57055        -1.90462        -6.36327
   C       -6.65660        -0.70915        -6.60165
   C       -7.89752        -0.81565        -5.94818
   C       -8.93955         0.02942        -6.29438
   C       -8.71119         0.97039        -7.28731
   C       -7.47171         1.08205        -7.91912
   C       -6.42676         0.23798        -7.58059
   F       -7.29235         2.01028        -8.86652
   F       -9.70630         1.78669        -7.64842
   C       -7.80812        -1.87165        -4.93727
   C       -8.62906        -1.98139        -3.84911
   C       -8.36843        -2.79252        -2.72246
   N       -8.18599        -3.37723        -1.75236
   C       -9.78682        -1.19461        -3.66137
   N      -10.74613        -0.59515        -3.47078
   H        5.96418        -2.78314        -3.65952
   H        8.27872        -7.15916        -4.25056
   H        3.23418        -6.50968        -0.48701
   H        0.78897        -9.51576        -0.48941
   H        2.20085        -7.41217        -2.22633
   H        1.96483        -3.03289        -4.90079
   H        1.25075        -0.89106        -5.84726
   H       -0.46865        -0.45345        -5.74720
   H        0.77336        -2.22024        -7.91850
   H        0.28053        -0.53587        -8.11872
   H       -0.93401        -1.77976        -7.80569
   H       -2.15381        -2.45355        -5.42669
   H       -4.21899        -6.04561        -2.47108
   H       -4.11463        -9.09318        -2.15405
   H       -5.22492        -6.13958        -4.20269
   H       -7.92780        -4.73058        -3.98356
   H       -5.14830        -4.09157        -5.17299
   H       -9.91444        -0.02129        -5.83753
   H       -5.47082         0.32079        -8.07262
*
