# ORCA input file
# SCF done       -179.268526251634          0.000374546721
! CAM-B3LYP def2-SVP def2/J RIJCOSX Grid4 TightSCF
%maxcore 5000
%tddft
    Mode sTDDFT
    Ethresh 5.0
    maxcore 5000
end

%pal
  nprocs 6
  end
* xyz 0 1
   C        5.66867         4.61962        -0.05079
   C        6.33351         5.81596         0.17859
   F        6.01593         6.88632        -0.56024
   C        7.31759         5.92888         1.15965
   F        7.93918         7.10169         1.34231
   C        7.65810         4.84270         1.95141
   C        6.98856         3.65586         1.73307
   C        6.00327         3.53252         0.73776
   C        5.52216         2.14940         0.72757
   C        4.91772         1.53389        -0.34235
   C        4.46670         2.21173        -1.49013
   N        4.06037         2.72294        -2.43462
   C        4.78511         0.13511        -0.44215
   N        4.71167        -1.00353        -0.57421
   C        6.06935         1.49895         1.88721
   C        7.12817         2.36329         2.44871
   O        7.90913         2.08926         3.33297
   C        5.73120         0.33346         2.53556
   C        4.53291        -0.37820         2.51459
   C        4.31031        -1.66385         3.05516
   C        2.95649        -2.09396         2.95481
   N        2.53477        -3.29046         3.38726
   C        3.42625        -4.08757         3.91692
   C        4.78728        -3.76716         4.05970
   C        5.24082        -2.54788         3.62445
   C        2.11200        -1.12117         2.36155
   S        3.02578         0.27798         1.92812
   C        0.73400        -1.16428         2.10627
   C       -0.05276        -2.25324         2.35811
   C       -1.43310        -2.32098         2.09486
   N       -2.13874        -3.49050         2.30909
   C       -3.43540        -3.28640         1.96921
   C       -4.68234        -3.88578         1.87293
   C       -5.55814        -2.89495         1.39506
   N       -4.85839        -1.72082         1.20554
   C       -3.55898        -1.93369         1.53724
   C       -2.31355        -1.33384         1.61094
   C       -6.93766        -3.04462         1.13288
   C       -7.78489        -2.02521         0.81165
   C       -9.15813        -2.11793         0.50946
   C       -9.97518        -3.20048         0.12105
   C      -11.34452        -2.82461        -0.05744
   N      -12.30450        -3.69189        -0.40561
   C      -11.95235        -4.92902        -0.62898
   C      -10.62732        -5.39360        -0.55636
   C       -9.63027        -4.52957        -0.18180
   C      -11.58073        -1.44984         0.16525
   S      -10.09934        -0.66187         0.59313
   C      -12.75618        -0.70032         0.04048
   C      -13.97092        -1.21010        -0.33529
   C      -15.15269        -0.46320        -0.46118
   C      -15.35943         0.89261        -0.56197
   C      -16.70428         1.41790        -0.22087
   O      -17.71648         0.77825        -0.04677
   C      -16.53117         2.88383        -0.09031
   C      -15.21747         3.22722        -0.45098
   C      -14.79836         4.54476        -0.37110
   C      -15.71290         5.49221         0.06616
   C      -17.01945         5.14550         0.40809
   C      -17.44444         3.82821         0.33307
   F      -17.87047         6.09443         0.81953
   F      -15.32409         6.76927         0.16593
   C      -14.51432         2.01467        -0.88325
   C      -13.38199         2.01769        -1.66089
   C      -12.83334         0.87478        -2.27406
   N      -12.34528        -0.01127        -2.81707
   C      -12.65629         3.17845        -1.99471
   N      -12.00676         4.08276        -2.27545
   H        4.91422         4.57710        -0.81947
   H        8.42033         4.92998         2.70905
   H        6.47875        -0.02062         3.23909
   H        3.05363        -5.04606         4.25377
   H        5.45999        -4.48238         4.50573
   H        6.28041        -2.27108         3.71195
   H        0.30031        -0.27711         1.66640
   H        0.42424        -3.12872         2.77670
   H       -1.72664        -4.34404         2.64518
   H       -4.95976        -4.89236         2.11312
   H       -5.24734        -0.87151         0.83579
   H       -2.04914        -0.32683         1.36182
   H       -7.31837        -4.04737         1.24526
   H       -7.40825        -1.01003         0.83807
   H      -12.75410        -5.60207        -0.90235
   H      -10.40596        -6.41959        -0.80412
   H       -8.60327        -4.85672        -0.14838
   H      -12.67385         0.34783         0.30120
   H      -14.03522        -2.27874        -0.48063
   H      -16.07719        -1.03106        -0.40244
   H      -13.79914         4.86181        -0.62120
   H      -18.45360         3.55724         0.59912
*
