# ORCA input file
# SCF done       -168.243121464902          0.000755921471
! CAM-B3LYP def2-SVP def2/J RIJCOSX Grid4 TightSCF
%maxcore 5000
%tddft
    Mode sTDDFT
    Ethresh 5.0
    maxcore 5000
end

%pal
  nprocs 6
  end
* xyz 0 1
   C       -1.52873        -2.12814         0.80831
   C       -1.46351        -1.98470        -0.52925
   C       -1.65475        -0.59836        -0.90206
   C       -1.84400         0.15535         0.21849
   C       -1.77204        -0.79698         1.40077
   O       -1.89555        -0.49974         2.56314
   C       -2.07324         1.53173         0.41332
   C       -2.16726         2.46307        -0.58209
   C       -2.40885         3.83576        -0.38519
   C       -2.53454         4.78111        -1.39071
   C       -2.79382         6.04910        -0.81386
   C       -2.80857         5.81255         0.63432
   C       -2.58501         4.51723         0.90087
   F       -3.01932         6.77859         1.53524
   C       -3.00996         7.25506        -1.45177
   C       -3.30150         8.51822        -0.87771
   C       -3.47531         9.44633        -1.89135
   C       -3.27967         8.76277        -3.17298
   C       -3.00576         7.47900        -2.90230
   F       -2.76065         6.51388        -3.79870
   C       -3.80481        10.81296        -1.79970
   C       -3.99049        11.50086        -0.63512
   C       -4.35708        12.85756        -0.57876
   S       -4.63158        13.78692        -2.03051
   C       -4.57372        13.63884         0.56227
   C       -4.41077        13.12821         1.93901
   O       -4.07645        11.98721         2.21304
   C       -4.69245        14.14031         2.94246
   C       -4.64050        14.04856         4.31668
   N       -4.97495        15.25044         4.84314
   C       -5.09777        15.53569         6.25053
   C       -6.50529        15.22184         6.75363
   C       -5.25493        16.12009         3.84396
   C       -5.08776        15.47362         2.63836
   C       -5.25724        15.98323         1.28871
   O       -5.60176        17.12787         1.04336
   C       -4.96614        14.96349         0.26091
   C       -5.05250        15.21137        -1.11426
   C       -5.44000        16.40477        -1.74837
   C       -5.47833        16.56780        -3.10383
   C       -5.90713        17.73323        -3.76723
   C       -6.41585        18.90716        -3.23137
   C       -6.75828        19.78619        -4.28690
   C       -6.40494        19.07222        -5.51865
   C       -5.90597        17.86263        -5.22599
   F       -6.57220        19.58546        -6.74536
   C       -7.33946        21.03970        -4.21138
   C       -7.72692        21.89346        -5.26831
   C       -8.31595        23.03820        -4.74457
   C       -8.29537        22.92661        -3.28361
   C       -7.71989        21.75228        -2.98559
   F       -7.50880        21.26724        -1.75731
   C       -8.85126        24.09282        -5.49953
   C       -9.46895        25.20051        -4.97897
   C      -10.02995        26.24286        -5.73206
   C      -10.11523        26.46293        -7.08497
   C      -10.80691        27.68623        -7.34667
   C      -11.18647        28.28853        -6.18057
   C      -10.71478        27.41060        -5.06503
   O      -10.85143        27.58855        -3.88070
   C      -11.89391        29.50535        -5.92578
   C      -12.35897        30.34309        -6.85687
   H       -1.42842        -3.02600         1.38684
   H       -1.29567        -2.76708        -1.24891
   H       -1.64177        -0.25349        -1.91981
   H       -2.18279         1.83466         1.44621
   H       -2.05845         2.14233        -1.61009
   H       -2.45645         4.58492        -2.44212
   H       -2.53959         4.05715         1.86762
   H       -3.38218         8.70849         0.17392
   H       -3.34878         9.23045        -4.13584
   H       -3.92512        11.34520        -2.73709
   H       -3.86496        11.00860         0.31867
   H       -4.38022        13.20910         4.93029
   H       -4.87051        16.59266         6.41119
   H       -4.36396        14.93361         6.79254
   H       -7.24011        15.82050         6.22078
   H       -6.57812        15.44258         7.81471
   H       -6.73732        14.17098         6.59845
   H       -5.54454        17.13456         4.03356
   H       -5.71924        17.21575        -1.09108
   H       -5.16510        15.74041        -3.73140
   H       -6.54799        19.11967        -2.18922
   H       -5.56135        17.11166        -5.90995
   H       -7.59847        21.68504        -6.31234
   H       -8.67124        23.65344        -2.59162
   H       -8.77131        23.99805        -6.57469
   H       -9.55836        25.30832        -3.90615
   H       -9.72728        25.82558        -7.85909
   H      -10.98968        28.05738        -8.33950
   H      -12.04308        29.72318        -4.87537
   H      -12.22837        30.15540        -7.90908
   H      -12.88417        31.24320        -6.59007
*
