# ORCA input file
# SCF done       -160.338260495546          0.000890746279
! CAM-B3LYP def2-SVP def2/J RIJCOSX Grid4 TightSCF
%maxcore 5000
%tddft
    Mode sTDDFT
    Ethresh 5.0
    maxcore 5000
end

%pal
  nprocs 6
  end
* xyz 0 1
   C        0.06689         1.94233         0.54687
   C        0.05740         1.13514         1.64784
   C        0.57266        -0.14763         1.26408
   C        0.90439        -0.09295        -0.14533
   O        1.36048        -0.90389        -0.91820
   N        0.56147         1.22751        -0.50217
   C        0.55232        -0.95119         2.38431
   O        0.05485        -0.24349         3.44260
   C       -0.27161         1.05641         3.05889
   O       -0.72341         1.84924         3.83407
   C        0.94674        -2.29173         2.56566
   C        1.48203        -3.12749         1.60294
   C        1.74377        -4.39177         2.20475
   C        1.32338        -4.25485         3.59948
   C        0.85136        -3.01878         3.82895
   F        1.41408        -5.24658         4.49644
   C        2.28616        -5.52189         1.62454
   C        2.55161        -6.77594         2.22344
   C        3.11845        -7.62433         1.28549
   C        3.22152        -6.89188         0.01831
   C        2.72890        -5.66290         0.22918
   F        2.64225        -4.68657        -0.67464
   C        3.52735        -8.94699         1.53053
   C        4.12883        -9.76878         0.61880
   C        4.55366       -11.08484         0.88254
   N        5.20277       -11.83325        -0.08101
   C        5.51386       -13.04611         0.44332
   C        6.12281       -14.25896         0.17542
   C        6.01203       -15.02253         1.35557
   N        5.34480       -14.28126         2.31208
   C        5.03403       -13.06872         1.78742
   C        4.43882       -11.85057         2.06085
   C        6.47059       -16.32363         1.63627
   C        7.18192       -17.10647         0.77058
   C        7.65996       -18.39809         1.05388
   C        8.43210       -19.17242         0.20167
   C        8.74090       -20.40007         0.83180
   C        8.08646       -20.33075         2.14519
   C        7.45111       -19.15934         2.29023
   F        8.13926       -21.31506         3.04784
   C        9.50274       -21.44790         0.34998
   C        9.81624       -22.67709         0.99008
   C       10.61734       -23.43110         0.15011
   C       10.83282       -22.66695        -1.07897
   C       10.17125       -21.50613        -0.94949
   F       10.11310       -20.52111        -1.85663
   C       11.17181       -24.71287         0.36248
   C       10.98174       -25.47587         1.47688
   C       11.53686       -26.75554         1.68863
   C       11.36133       -27.58669         2.78388
   C       12.11313       -28.79255         2.57467
   C       12.78159       -28.67959         1.27714
   O       13.51400       -29.42246         0.67376
   N       12.37683       -27.42472         0.81772
   C       11.91064       -29.57446         3.66258
   O       11.09439       -28.97323         4.54836
   C       10.70589       -27.70863         4.05919
   O        9.97390       -26.98867         4.68261
   H       -0.24001         2.96533         0.43771
   H        0.67871         1.58098        -1.43934
   H        1.66744        -2.86464         0.57928
   H        0.47006        -2.60779         4.74239
   H        2.35078        -7.02677         3.24625
   H        3.61412        -7.27459        -0.90263
   H        3.35367        -9.31733         2.53116
   H        4.31402        -9.39790        -0.38013
   H        5.41023       -11.51017        -1.01045
   H        6.58850       -14.57892        -0.73387
   H        5.14471       -14.60078         3.24439
   H        3.97663       -11.52994         2.97160
   H        6.24331       -16.70584         2.62220
   H        7.42088       -16.71736        -0.20941
   H        8.75360       -18.88394        -0.77965
   H        6.88879       -18.83741         3.14389
   H        9.48079       -22.95856         1.96823
   H       11.41558       -22.99648        -1.91728
   H       11.78797       -25.09257        -0.44367
   H       10.36104       -25.11317         2.28262
   H       12.68639       -27.05869        -0.06863
   H       12.27438       -30.55033         3.92571
*
