# ORCA input file
# SCF done       -210.555155607534          0.000302768891
! CAM-B3LYP def2-SVP def2/J RIJCOSX Grid4 TightSCF
%maxcore 5000
%tddft
    Mode sTDDFT
    Ethresh 5.0
    maxcore 5000
end

%pal
  nprocs 6
  end
* xyz 0 1
   C       -0.92028         0.75089        -3.47541
   S        0.24796         1.65176        -2.61613
   C       -0.39751         3.15833        -3.22757
   C       -1.49290         2.92181        -4.04286
   C       -1.77902         1.54505        -4.18107
   C       -2.91921         1.00981        -4.99436
   C       -3.48070         2.07082        -5.94461
   C       -2.59911         2.19580        -7.18229
   F       -1.29110         2.32843        -6.93185
   F       -2.71583         1.10674        -7.96418
   F       -2.94538         3.24497        -7.94719
   C       -3.65026         3.40506        -5.21403
   C       -2.31803         3.96931        -4.72037
   C        0.25705         4.34941        -2.81599
   C        0.11267         5.59905        -3.32889
   C        0.80623         6.73705        -2.84363
   C        1.66472         6.84957        -1.77012
   C        2.11587         8.19232        -1.67058
   C        1.46172         8.90204        -2.77625
   C        0.68609         8.05797        -3.47041
   F        1.63436        10.20792        -3.02243
   C        2.97765         8.73825        -0.74284
   C        3.44143        10.07837        -0.64516
   C        4.28673        10.19093         0.44287
   C        4.38073         8.87650         1.08285
   C        3.61173         8.03584         0.37421
   F        3.42560         6.73312         0.63013
   C        4.94430        11.36867         0.85400
   C        5.75553        11.46139         1.94714
   C        6.40774        12.66096         2.31285
   O        6.24204        13.75177         1.54526
   C        6.95976        14.77636         2.05919
   C        7.62289        14.33640         3.22375
   C        7.26577        12.97781         3.38353
   C        7.69418        12.03927         4.45538
   F        7.18890        10.80700         4.33340
   F        9.03354        11.87053         4.50283
   F        7.33346        12.44974         5.69065
   O        8.39507        15.18707         3.90896
   C        9.06845        14.80874         5.09520
   C        6.94064        16.01882         1.39509
   C        7.64711        17.12032         1.77939
   C        7.64827        18.35867         1.10654
   C        8.40522        19.45836         1.47022
   C        8.16966        20.51680         0.55608
   C        7.19353        19.98287        -0.39716
   C        6.88018        18.71497        -0.08905
   F        6.70438        20.68783        -1.42744
   C        8.74099        21.77328         0.53492
   C        8.52492        22.82916        -0.38777
   C        9.33471        23.89714        -0.05410
   C       10.10496        23.52748         1.13677
   C        9.74376        22.28221         1.47645
   F       10.21531        21.57608         2.51394
   C        9.48364        25.15560        -0.68691
   C        8.75589        25.55488        -1.76511
   C        8.83561        26.77166        -2.48576
   S        7.86499        26.87670        -3.93261
   C        8.44847        28.46668        -4.28582
   C        9.34985        28.88692        -3.32263
   C        9.55697        27.94684        -2.29960
   C       10.45581        28.21217        -1.12994
   C       10.86028        29.68723        -1.02571
   C        9.75606        30.48610        -0.34137
   F        8.52734        30.27856        -0.82977
   F        9.68830        30.18104         0.96782
   F        9.97084        31.81080        -0.40601
   C       11.22059        30.25691        -2.39809
   C       10.02966        30.22198        -3.35195
   C        8.00067        29.19355        -5.43887
   C        7.11758        28.73600        -6.32502
   H       -0.91751        -0.31973        -3.41989
   H       -3.71968         0.69133        -4.32017
   H       -2.59640         0.12958        -5.55566
   H       -4.45339         1.74117        -6.32693
   H       -4.31014         3.23002        -4.36219
   H       -4.13157         4.13106        -5.87130
   H       -2.51469         4.79052        -4.02732
   H       -1.75548         4.37706        -5.56597
   H        0.97396         4.21130        -2.01757
   H       -0.53700         5.77057        -4.17265
   H        1.95651         6.06400        -1.10282
   H        0.08342         8.27824        -4.33017
   H        3.17406        10.87291        -1.31388
   H        4.96147         8.63942         1.95182
   H        4.78292        12.25079         0.24908
   H        5.91782        10.59664         2.56534
   H        9.59749        15.70604         5.41264
   H        9.79284        14.01328         4.91292
   H        8.36966        14.51054         5.87854
   H        6.31528        16.04818         0.51456
   H        8.27009        17.05476         2.65873
   H        9.07292        19.50293         2.30784
   H        6.19538        18.07670        -0.61090
   H        7.84435        22.77920        -1.21376
   H       10.81637        24.16056         1.63094
   H       10.23858        25.79896        -0.26336
   H        8.02481        24.85928        -2.15580
   H       11.36476        27.61120        -1.23068
   H        9.95392        27.91115        -0.20659
   H       11.72431        29.77797        -0.35749
   H       12.03207        29.64986        -2.80413
   H       11.58145        31.28149        -2.29506
   H       10.37743        30.44073        -4.36370
   H        9.30844        30.99906        -3.08174
   H        8.42479        30.18122        -5.55913
   H        6.67488        27.75881        -6.22366
   H        6.81091        29.32401        -7.17130
*
