# ORCA input file
# SCF done       -223.305025301851          0.000924172311
! CAM-B3LYP def2-SVP def2/J RIJCOSX Grid4 TightSCF
%maxcore 5000
%tddft
    Mode sTDDFT
    Ethresh 5.0
    maxcore 5000
end

%pal
  nprocs 6
  end
* xyz 0 1
   C       -7.27875        -2.37710         9.85241
   C       -6.74761        -3.12249        10.89384
   C       -5.74322        -4.05448        10.66989
   C       -5.23693        -4.26460         9.39664
   C       -5.76113        -3.52731         8.34706
   C       -6.78790        -2.58082         8.57165
   C       -7.15103        -1.96493         7.30299
   C       -7.98576        -0.89649         7.13147
   C       -8.64481        -0.23053         8.18756
   N       -9.20740         0.35189         9.00038
   C       -8.26531        -0.27803         5.89342
   N       -8.52668         0.27836         4.92429
   C       -6.43915        -2.70573         6.26054
   C       -5.41203        -3.49944         6.93700
   C       -4.22755        -3.91047         6.39236
   C       -3.80576        -3.56206         5.09132
   N       -3.37747        -3.24127         4.07632
   C       -3.25752        -4.65991         7.08900
   N       -2.45549        -5.30179         7.60064
   C       -6.79280        -2.74039         4.95054
   C       -6.37719        -3.70618         3.96380
   C       -6.15598        -5.05096         4.30343
   C       -5.75441        -5.93252         3.33342
   C       -5.56003        -5.49956         2.00840
   C       -5.81317        -4.18156         1.65579
   C       -6.23912        -3.30146         2.62953
   C       -5.10794        -6.62772         1.22137
   C       -5.03205        -7.75534         2.05968
   C       -5.45237        -7.40551         3.46688
   C       -4.31350        -7.65382         4.47479
   C       -2.99857        -7.00469         4.05980
   C       -6.70257        -8.19880         3.89270
   C       -7.88299        -7.99754         2.95008
   C       -4.60341        -8.96377         1.56858
   C       -4.23889        -9.04991         0.21936
   C       -4.32397        -7.93093        -0.61380
   C       -4.75987        -6.71718        -0.11934
   C       -3.74315       -10.30907        -0.28363
   O       -3.32546       -10.40774        -1.58073
   C       -2.88715       -11.68164        -1.70454
   C       -3.07129       -12.31978        -0.44544
   N       -3.61832       -11.39750         0.40760
   C       -2.70442       -13.63710        -0.22726
   C       -2.13879       -14.26982        -1.32197
   C       -1.96485       -13.60792        -2.57172
   C       -2.33441       -12.29906        -2.80945
   O       -1.37293       -14.48281        -3.41595
   C       -1.20047       -15.62011        -2.67176
   N       -1.63825       -15.53681        -1.45311
   C       -0.54676       -16.76255        -3.22821
   C       -0.07813       -16.80145        -4.48847
   C        0.64973       -17.88773        -5.10213
   C        1.03959       -19.03107        -4.38843
   C        1.78053       -20.00142        -5.01652
   C        2.13742       -19.86924        -6.37021
   C        1.73841       -18.75460        -7.09496
   C        1.00557       -17.77685        -6.45434
   C        2.95840       -21.00049        -6.73902
   C        3.11998       -21.82486        -5.60956
   C        2.29871       -21.30694        -4.45407
   C        3.12743       -21.11002        -3.17733
   C        4.28359       -20.13723        -3.38025
   C        1.06645       -22.21167        -4.20331
   C        1.37349       -23.67086        -3.89594
   C        3.96435       -22.90617        -5.65838
   C        4.58120       -23.24386        -6.87272
   C        4.38373       -22.43385        -7.99988
   C        3.59693       -21.30413        -7.93440
   C        5.46661       -24.38066        -6.90918
   C        5.66817       -25.23130        -7.94734
   C        6.82811       -26.11005        -8.09993
   C        7.68408       -26.52555        -7.11830
   C        7.55545       -26.21847        -5.74644
   N        7.50568       -26.01685        -4.61739
   C        8.79661       -27.36542        -7.34185
   N        9.71592       -28.04255        -7.45621
   C        6.89902       -26.46272        -9.51076
   C        5.74067       -25.98193       -10.16452
   C        5.56580       -26.17518       -11.52535
   C        6.55120       -26.84942       -12.22979
   C        7.68590       -27.32819       -11.58908
   C        7.87214       -27.14211       -10.22786
   C        4.88323       -25.34991        -9.17601
   C        3.53617       -25.14633        -9.29144
   C        2.81400       -25.33951       -10.48748
   N        2.18726       -25.46331       -11.44071
   C        2.69394       -24.81487        -8.20859
   N        1.95217       -24.62463        -7.35394
   H       -8.06070        -1.66095        10.04451
   H       -7.12484        -2.97486        11.89415
   H       -5.34979        -4.62512        11.49712
   H       -4.46038        -4.99426         9.23207
   H       -7.50473        -2.00488         4.59933
   H       -6.33528        -5.38670         5.31544
   H       -5.68178        -3.84690         0.63850
   H       -6.42931        -2.26858         2.37888
   H       -4.16610        -8.73035         4.57803
   H       -4.62018        -7.26640         5.44952
   H       -2.61341        -7.46485         3.15310
   H       -2.25977        -7.12490         4.84859
   H       -3.12844        -5.94102         3.87214
   H       -6.98547        -7.89115         4.90193
   H       -6.44428        -9.25868         3.92572
   H       -8.16953        -6.94880         2.90536
   H       -8.73846        -8.57291         3.29599
   H       -7.63084        -8.32751         1.94495
   H       -4.52534        -9.84619         2.18304
   H       -4.03711        -8.02710        -1.64979
   H       -4.81912        -5.85310        -0.76337
   H       -2.83573       -14.12693         0.72074
   H       -2.19488       -11.80616        -3.75594
   H       -0.44708       -17.58352        -2.53654
   H       -0.24157       -15.93418        -5.11605
   H        0.77562       -19.13397        -3.34797
   H        2.00423       -18.64784        -8.13592
   H        0.69858       -16.89737        -7.00192
   H        3.52390       -22.07332        -2.85521
   H        2.47332       -20.73675        -2.38703
   H        4.95815       -20.49825        -4.15392
   H        4.84742       -20.02740        -2.45691
   H        3.91567       -19.15736        -3.67724
   H        0.43563       -22.17375        -5.09465
   H        0.50088       -21.77506        -3.37699
   H        1.80710       -24.16186        -4.76250
   H        0.44735       -24.18481        -3.64862
   H        2.04831       -23.76931        -3.04950
   H        4.14261       -23.52376        -4.79174
   H        4.90462       -22.66993        -8.91752
   H        3.48727       -20.66451        -8.79708
   H        6.06890       -24.51532        -6.02007
   H        4.69136       -25.80183       -12.03351
   H        6.43272       -27.00187       -13.29160
   H        8.43890       -27.85183       -12.15787
   H        8.76154       -27.51640        -9.74821
*
