# ORCA input file
# SCF done       -213.012753670798          0.000386242084
! CAM-B3LYP def2-SVP def2/J RIJCOSX Grid4 TightSCF
%maxcore 5000
%tddft
    Mode sTDDFT
    Ethresh 5.0
    maxcore 5000
end

%pal
  nprocs 6
  end
* xyz 0 1
   C       -9.86206         2.64960        -4.03603
   C      -11.20406         2.90274        -3.79695
   C      -11.95840         2.06555        -2.98613
   C      -11.39036         0.95236        -2.38614
   C      -10.05026         0.68761        -2.61849
   C       -9.28130         1.53604        -3.44845
   C       -7.92361         1.01683        -3.52701
   C       -6.84968         1.64412        -4.09382
   C       -6.91184         2.91012        -4.71579
   N       -6.89585         3.93247        -5.23655
   C       -5.52738         1.14927        -4.09466
   N       -4.42989         0.81350        -4.12054
   C       -7.93879        -0.29281        -2.87277
   C       -9.18923        -0.37068        -2.11732
   C       -9.40854        -1.11964        -0.99497
   C       -8.42986        -1.92981        -0.38123
   N       -7.65938        -2.54471         0.20609
   C      -10.61487        -1.10170        -0.26379
   N      -11.58114        -1.13757         0.35414
   C       -7.01290        -1.26447        -3.07342
   C       -7.12632        -2.66970        -2.77651
   C       -5.96476        -3.38093        -2.43747
   C       -6.05498        -4.72034        -2.15506
   C       -7.28882        -5.38946        -2.25260
   C       -8.43342        -4.70526        -2.63952
   C       -8.34608        -3.35261        -2.88983
   C       -7.08222        -6.78303        -1.92751
   C       -5.72301        -6.97293        -1.62706
   C       -4.96196        -5.67443        -1.73971
   C       -3.85235        -5.76525        -2.80475
   C       -4.37878        -6.15679        -4.18029
   C       -4.34495        -5.26647        -0.38786
   C       -5.37491        -5.15843         0.72966
   C       -5.23995        -8.21371        -1.29150
   C       -6.11795        -9.30744        -1.26138
   C       -7.47329        -9.10239        -1.55660
   C       -7.96237        -7.85565        -1.88509
   C       -5.64192       -10.63802        -0.95869
   S       -6.74311       -11.98089        -0.96209
   C       -5.47823       -13.11138        -0.59198
   C       -5.69192       -14.55710        -0.43829
   O       -4.78370       -15.31443        -0.22375
   O       -6.95626       -14.99671        -0.55240
   C       -4.27456       -12.47345        -0.46165
   C       -4.35989       -11.08207        -0.66566
   O       -3.31483       -10.22568        -0.50753
   C       -2.06508       -10.56856        -0.96129
   C       -0.99605        -9.93401        -0.32764
   C        0.27648       -10.16595        -0.79245
   C        0.49246       -11.02897        -1.87943
   C       -0.57388       -11.65958        -2.50099
   C       -1.85596       -11.42361        -2.03975
   C        1.90891       -11.04465        -2.17249
   C        2.56655       -10.19650        -1.26210
   C        1.58652        -9.62855        -0.26237
   C        1.61343        -8.09335        -0.22606
   C        1.26721        -7.47230        -1.57448
   C        1.78657       -10.23972         1.14610
   C        3.14010        -9.98248         1.79442
   C        3.91589        -9.97278        -1.37854
   C        4.63057       -10.58445        -2.42068
   C        3.97215       -11.47169        -3.28359
   C        2.61948       -11.70690        -3.16442
   C        6.04320       -10.32593        -2.53299
   C        6.79023       -10.28085        -3.66546
   C        8.24914       -10.38968        -3.70568
   C        9.12304       -10.16038        -2.67972
   C        8.76227        -9.71546        -1.38944
   N        8.54112        -9.34460        -0.32566
   C       10.52441       -10.29041        -2.79109
   N       11.66831       -10.37825        -2.81434
   C        8.59965       -10.78136        -5.06325
   C        7.43958       -10.72962        -5.87034
   C        7.49721       -11.06930        -7.21242
   C        8.71616       -11.46104        -7.74392
   C        9.85737       -11.50735        -6.95473
   C        9.81310       -11.16878        -5.61101
   C        6.33086       -10.26356        -5.05428
   C        5.18356        -9.68283        -5.51836
   C        4.82464        -9.63429        -6.88180
   N        4.47611        -9.58470        -7.97402
   C        4.26566        -8.98086        -4.70875
   N        3.52366        -8.32958        -4.12395
   H       -9.29312         3.30705        -4.67263
   H      -11.66791         3.76397        -4.25281
   H      -13.00276         2.28122        -2.82039
   H      -11.98712         0.30491        -1.76414
   H       -6.09135        -0.98279        -3.56634
   H       -5.02461        -2.85438        -2.36756
   H       -9.37622        -5.22018        -2.74580
   H       -9.22340        -2.81427        -3.22022
   H       -3.11521        -6.50120        -2.47722
   H       -3.35068        -4.79807        -2.87089
   H       -4.87340        -7.12509        -4.14288
   H       -3.55703        -6.21812        -4.88966
   H       -5.09286        -5.42130        -4.54434
   H       -3.84249        -4.30524        -0.51151
   H       -3.58879        -6.00740        -0.11878
   H       -6.11997        -4.40152         0.49985
   H       -4.88314        -4.88192         1.65922
   H       -5.88183        -6.10938         0.88006
   H       -4.19876        -8.34791        -1.05481
   H       -8.14801        -9.94640        -1.52723
   H       -9.01023        -7.72266        -2.10691
   H       -7.59114       -14.28709        -0.72048
   H       -3.36623       -12.99325        -0.21453
   H       -1.19762        -9.27153         0.49964
   H       -0.41673       -12.31786        -3.34131
   H       -2.69999       -11.88887        -2.52716
   H        2.60823        -7.76164         0.07226
   H        0.90385        -7.74982         0.53008
   H        1.97247        -7.78865        -2.33815
   H        1.30199        -6.38774        -1.50329
   H        0.26724        -7.76397        -1.88873
   H        1.63481       -11.31972         1.06816
   H        1.00021        -9.84282         1.79167
   H        3.93851       -10.45819         1.23182
   H        3.14137       -10.40116         2.79849
   H        3.34747        -8.91900         1.87389
   H        4.43364        -9.28873        -0.72407
   H        4.54235       -11.99826        -4.03619
   H        2.12236       -12.38810        -3.83823
   H        6.55816       -10.20929        -1.58820
   H        6.61569       -11.04372        -7.83247
   H        8.77576       -11.73506        -8.78605
   H       10.79552       -11.81460        -7.39083
   H       10.70776       -11.21567        -5.01219
*
