# ORCA input file
# SCF done       -209.318227393928          0.000494984647
! CAM-B3LYP def2-SVP def2/J RIJCOSX Grid4 TightSCF
%maxcore 5000
%tddft
    Mode sTDDFT
    Ethresh 5.0
    maxcore 5000
end

%pal
  nprocs 6
  end
* xyz 0 1
   C      -12.86016        -3.86865         0.32512
   C      -13.09831        -4.38593        -0.93962
   C      -12.72517        -5.68203        -1.26656
   C      -12.10883        -6.50282        -0.33393
   C      -11.86438        -5.99637         0.93133
   C      -12.23521        -4.67338         1.26492
   C      -11.84099        -4.40410         2.64202
   C      -12.13041        -3.27141         3.35602
   C      -12.87325        -2.18366         2.84933
   N      -13.46578        -1.26483         2.50071
   C      -11.76218        -3.04160         4.69780
   N      -11.48827        -2.79662         5.78638
   C      -11.07360        -5.56087         3.08987
   C      -11.28477        -6.61855         2.11017
   C      -11.22614        -7.96243         2.36272
   C      -10.98749        -8.48988         3.65022
   N      -10.85382        -8.93959         4.69714
   C      -11.48219        -8.95702         1.39825
   N      -11.64863        -9.80396         0.64176
   C      -10.22961        -5.55243         4.16576
   C       -9.12852        -6.38898         4.44580
   S       -8.30354        -7.29583         3.20569
   C       -7.06968        -7.78510         4.31781
   C       -7.29958        -7.27497         5.59635
   C       -8.45191        -6.47909         5.66527
   C       -8.95588        -5.84654         6.92178
   C       -7.81794        -5.41294         7.82146
   S       -6.98145        -6.94607         8.32435
   O       -5.83144        -6.63079         9.12385
   O       -7.96576        -7.83155         8.87107
   C       -6.38154        -7.58516         6.72685
   C       -6.00002        -8.62225         3.92134
   C       -5.90893        -9.22376         2.70819
   C       -4.87238       -10.10052         2.29385
   S       -4.55639       -10.20746         0.59046
   C       -3.12243       -11.14756         0.80821
   C       -2.90393       -11.38707         2.16985
   C       -3.93296       -10.85537         3.01483
   C       -3.90223       -11.14990         4.40610
   C       -5.05275       -10.95331         5.33193
   O       -4.94187       -10.51890         6.44623
   O       -6.24909       -11.35668         4.87032
   C       -2.78316       -11.74961         4.93277
   C       -1.70452       -12.12879         4.12718
   C       -1.75508       -11.98477         2.76188
   O       -0.73575       -12.35756         1.96074
   C       -2.41863       -11.68552        -0.31512
   S       -1.96769       -13.35784        -0.29412
   C       -1.31956       -13.25213        -1.89457
   C       -1.45670       -11.96396        -2.41159
   C       -2.09764       -11.08212        -1.52639
   C       -2.29808        -9.61740        -1.78573
   C       -2.46998        -9.31279        -3.25816
   S       -0.91169        -9.82117        -4.03212
   O       -0.93534        -9.56748        -5.44353
   O        0.17999        -9.28403        -3.27032
   C       -0.98364       -11.62265        -3.78255
   C       -0.78107       -14.38369        -2.54974
   C       -0.70981       -15.62278        -1.99628
   C       -0.17355       -16.78504        -2.60150
   C       -0.00811       -17.08901        -3.92466
   C        0.90135       -18.12995        -4.40273
   C        1.42018       -19.17509        -3.68827
   C        1.13960       -19.47470        -2.33754
   N        0.96011       -19.79124        -1.24851
   C        2.28785       -20.14797        -4.23163
   N        2.99363       -20.97164        -4.60602
   C        1.14967       -17.85656        -5.81165
   C        0.29137       -16.81524        -6.23107
   C        0.34040       -16.33992        -7.53143
   C        1.24656       -16.91230        -8.41127
   C        2.08346       -17.94176        -8.00403
   C        2.04549       -18.42405        -6.70424
   C       -0.55261       -16.43270        -5.10896
   C       -1.75753       -15.79174        -5.21888
   C       -2.26095       -15.26042        -6.42531
   N       -2.72106       -14.78257        -7.36175
   C       -2.68391       -15.62010        -4.17052
   N       -3.49633       -15.45841        -3.37592
   H      -13.15530        -2.85911         0.55901
   H      -13.58000        -3.76624        -1.68031
   H      -12.91623        -6.05869        -2.25969
   H      -11.81846        -7.50702        -0.59756
   H      -10.34451        -4.73002         4.85864
   H       -9.54273        -6.59380         7.46770
   H       -9.61543        -5.00478         6.70089
   H       -8.17546        -4.92098         8.72127
   H       -7.08319        -4.78856         7.32117
   H       -6.24731        -8.65990         6.86162
   H       -5.40223        -7.12693         6.59036
   H       -5.22365        -8.76627         4.65623
   H       -6.64709        -8.98081         1.95300
   H       -6.21030       -11.71489         3.97399
   H       -2.75134       -11.94332         5.99348
   H       -0.83005       -12.56766         4.58547
   H       -0.01626       -12.72988         2.48766
   H       -1.40039        -9.08834        -1.44621
   H       -3.14857        -9.24065        -1.21724
   H       -2.61229        -8.25215        -3.44379
   H       -3.26259        -9.88560        -3.73052
   H        0.02247       -11.99373        -3.96917
   H       -1.65615       -11.99765        -4.55418
   H       -0.39116       -14.21662        -3.54477
   H       -1.01802       -15.73225        -0.96404
   H        0.20627       -17.51130        -1.89460
   H       -0.29706       -15.53431        -7.85774
   H        1.30113       -16.54805        -9.42553
   H        2.78007       -18.37306        -8.70632
   H        2.70888       -19.21818        -6.40422
*
