# ORCA input file
# SCF done       -211.020377212307          0.000765856395
! CAM-B3LYP def2-SVP def2/J RIJCOSX Grid4 TightSCF
%maxcore 5000
%tddft
    Mode sTDDFT
    Ethresh 5.0
    maxcore 5000
end

%pal
  nprocs 6
  end
* xyz 0 1
   C       -9.56321        -0.42774        -5.05035
   C       -9.36829         0.94191        -4.95395
   C       -8.45588         1.47498        -4.05383
   C       -7.70578         0.65198        -3.22783
   C       -7.89028        -0.71855        -3.31615
   C       -8.82545        -1.26349        -4.22611
   C       -8.82585        -2.71355        -4.09254
   C       -9.48407        -3.59540        -4.90311
   C      -10.28111        -3.21161        -6.00475
   N      -10.93894        -2.96953        -6.91272
   C       -9.43136        -5.00290        -4.79991
   N       -9.42851        -6.15065        -4.78495
   C       -7.98156        -3.02854        -2.93866
   C       -7.24193        -1.81176        -2.61056
   C       -6.03718        -1.73991        -1.96545
   C       -5.29428        -2.84927        -1.51338
   N       -4.60495        -3.69663        -1.16025
   C       -5.34161        -0.53346        -1.73410
   N       -4.73946         0.41350        -1.49592
   C       -8.00398        -4.21832        -2.27720
   C       -7.48422        -4.54980        -0.99430
   S       -6.83396        -6.15151        -0.80959
   C       -6.41030        -5.84032         0.83789
   C       -6.82531        -4.57074         1.23720
   C       -7.43886        -3.84365         0.20308
   C       -8.09965        -2.51776         0.42657
   C       -7.25418        -1.63561         1.32195
   S       -7.33622        -2.44885         2.94764
   O       -6.52238        -1.75125         3.89770
   O       -8.72168        -2.65333         3.26398
   C       -6.55917        -4.06426         2.61290
   C       -5.72053        -6.79413         1.63069
   C       -5.27917        -7.98473         1.16002
   C       -4.59456        -8.97960         1.90764
   S       -3.96011       -10.35926         1.06988
   C       -3.34530       -11.07284         2.53029
   C       -3.60211       -10.24735         3.61226
   C       -4.31781        -9.07187         3.27098
   C       -4.75274        -8.12139         4.21288
   N       -5.13718        -7.35251         4.97217
   C       -3.10584       -10.50840         4.99894
   F       -1.86610       -11.03596         5.00820
   F       -3.03974        -9.40903         5.75036
   F       -3.88073       -11.38438         5.67617
   C       -2.69549       -12.33982         2.43169
   C       -2.61512       -13.27450         3.40433
   C       -1.93391       -14.51203         3.25546
   S       -1.00631       -14.86065         1.83448
   C       -0.55034       -16.41694         2.45559
   C       -1.13511       -16.65891         3.69953
   C       -1.89822       -15.57061         4.16011
   C       -2.65812       -15.51106         5.45309
   C       -2.21651       -16.55965         6.45067
   S       -2.38138       -18.15219         5.59284
   O       -2.05066       -19.22923         6.47987
   O       -3.64859       -18.17959         4.92372
   C       -1.03623       -17.97639         4.37913
   C        0.31358       -17.20628         1.65468
   C        1.10306       -18.23351         2.05994
   C        1.98774       -18.94058         1.20043
   C        1.84237       -19.18724        -0.13405
   C        2.93948       -19.52625        -1.03933
   C        4.18370       -19.98310        -0.70228
   C        4.62912       -20.26264         0.60791
   N        5.06077       -20.51133         1.64219
   C        5.19729       -20.28038        -1.63974
   N        6.06349       -20.54432        -2.34436
   C        2.45806       -19.27563        -2.39126
   C        1.07907       -18.96872        -2.33741
   C        0.37623       -18.66627        -3.49243
   C        1.05523       -18.67530        -4.70127
   C        2.40693       -18.98563        -4.75793
   C        3.12149       -19.28809        -3.60853
   C        0.64023       -19.06321        -0.95454
   C       -0.64948       -19.26828        -0.54201
   C       -1.76643       -19.22351        -1.40243
   N       -2.70774       -19.17727        -2.05694
   C       -1.00120       -19.61762         0.77596
   N       -1.32536       -19.94302         1.82824
   H      -10.28081        -0.82237        -5.75033
   H       -9.94004         1.60167        -5.58808
   H       -8.32769         2.54455        -3.99230
   H       -7.00635         1.07789        -2.52705
   H       -8.48183        -5.05017        -2.77948
   H       -9.04169        -2.69414         0.95973
   H       -8.34186        -2.02885        -0.51681
   H       -7.66400        -0.63541         1.43075
   H       -6.20723        -1.58445         1.03605
   H       -6.94184        -4.73949         3.37742
   H       -5.49332        -3.91005         2.77843
   H       -5.54399        -6.51853         2.65841
   H       -5.43445        -8.22212         0.11463
   H       -2.28522       -12.56778         1.45560
   H       -3.10731       -13.12127         4.35096
   H       -3.71559       -15.68816         5.23075
   H       -2.56570       -14.51398         5.89151
   H       -2.85065       -16.57242         7.33227
   H       -1.17529       -16.46426         6.74515
   H       -1.13134       -18.79397         3.66049
   H       -0.12239       -18.10061         4.95792
   H        0.38818       -16.88135         0.62267
   H        1.18279       -18.46860         3.10984
   H        2.90885       -19.26289         1.66796
   H       -0.67179       -18.41645        -3.45902
   H        0.52307       -18.43605        -5.60906
   H        2.91437       -18.98894        -5.71032
   H        4.17160       -19.52048        -3.67215
*
