# ORCA input file
# SCF done       -223.645792312808          0.000653566869
! CAM-B3LYP def2-SVP def2/J RIJCOSX Grid4 TightSCF
%maxcore 5000
%tddft
    Mode sTDDFT
    Ethresh 5.0
    maxcore 5000
end

%pal
  nprocs 6
  end
* xyz 0 1
   C       -9.64387         0.81209        -3.98766
   C       -8.48280         1.47086        -3.67672
   C       -8.26542         2.84419        -3.92338
   N       -8.01918         3.95233        -4.09239
   C       -7.34901         0.91939        -3.04058
   N       -6.38969         0.57788        -2.50928
   C      -10.83315         1.44358        -4.55342
   C      -11.86704         0.49524        -4.59719
   C      -13.12365         0.80446        -5.07617
   C      -13.35570         2.09728        -5.52761
   C      -12.32983         3.04912        -5.49349
   C      -11.06620         2.73202        -5.00766
  Cl      -12.62655         4.64219        -6.06129
  Cl      -14.90473         2.52592        -6.13050
   C      -11.38347        -0.80434        -4.08117
   O      -12.04893        -1.81110        -3.99304
   C       -9.95125        -0.59090        -3.75148
   C       -9.00622        -1.51705        -3.39230
   C       -9.09141        -2.88134        -3.04347
   C       -7.95510        -3.64276        -2.81614
   C       -8.34118        -4.96201        -2.44237
   C       -9.80285        -4.94274        -2.44828
   C      -10.26040        -3.73078        -2.80020
   F      -10.54733        -6.00885        -2.12984
   C       -7.53049        -6.03453        -2.13472
   C       -7.91365        -7.34240        -1.74900
   C       -6.77685        -8.10602        -1.53174
   C       -5.60381        -7.26073        -1.78550
   C       -6.05931        -6.05096        -2.13877
   F       -5.31622        -4.98913        -2.45802
   C       -6.77658        -9.45743        -1.15359
   C       -5.65675       -10.19888        -0.88748
   C       -5.65202       -11.54628        -0.49171
   S       -4.35748       -12.04972         0.55078
   C       -5.16118       -13.51793         1.00501
   C       -6.37852       -13.65109         0.29199
   C       -6.60938       -12.58249        -0.62832
   C       -7.65275       -12.71975        -1.57484
   C       -7.78170       -11.91968        -2.84287
   F       -6.65306       -11.31673        -3.23532
   F       -8.13160       -12.72219        -3.86665
   F       -8.73968       -10.97366        -2.79588
   C       -8.54626       -13.76015        -1.43438
   C       -8.42109       -14.70958        -0.42437
   C       -7.32063       -14.70929         0.41187
   O       -7.07684       -15.65975         1.33501
   C       -7.98482       -16.73350         1.47610
   C       -4.59794       -14.39089         1.94146
   C       -3.35829       -14.22617         2.50622
   C       -2.78477       -15.10982         3.43114
   C       -1.50782       -15.00770         3.96841
   C       -1.28091       -16.09459         4.84437
   C       -2.52620       -16.87289         4.82078
   C       -3.41599       -16.30888         3.99208
   F       -2.71262       -17.98778         5.53485
   C       -0.13848       -16.40493         5.55733
   C        0.08906       -17.51403         6.41339
   C        1.39018       -17.46419         6.88652
   C        2.03305       -16.27117         6.32731
   C        1.12247       -15.65910         5.55456
   F        1.30123       -14.52978         4.85881
   C        1.98110       -18.41617         7.73881
   C        3.28658       -18.40471         8.14776
   C        3.80519       -19.41624         8.97607
   C        5.11118       -19.50467         9.38678
   C        5.68989       -20.53636        10.22305
   C        5.03928       -21.58982        10.81268
   C        5.67188       -22.56196        11.61684
   N        6.11931       -23.38478        12.28031
   C        3.65850       -21.86387        10.71783
   N        2.54940       -22.16104        10.69424
   C        7.11985       -20.25548        10.34374
   C        7.41635       -19.08182         9.62954
   C        6.18319       -18.55246         9.00814
   O        6.09218       -17.55093         8.33126
   C        8.69665       -18.57179         9.56416
   C        9.71134       -19.25052        10.22739
   C        9.42631       -20.42077        10.94021
   C        8.13375       -20.92997        11.00434
  Cl       10.68910       -21.25260        11.75366
  Cl       11.31875       -18.65087        10.16925
   H      -13.90230         0.05842        -5.09771
   H      -10.30259         3.49202        -5.00133
   H       -7.98453        -1.15422        -3.36893
   H       -6.94308        -3.29739        -2.90645
   H      -11.28044        -3.42174        -2.89989
   H       -8.92368        -7.68909        -1.65240
   H       -4.57939        -7.56599        -1.70985
   H       -7.74907        -9.91208        -1.03012
   H       -4.69701        -9.70139        -0.85866
   H       -9.35442       -13.86148        -2.14221
   H       -9.16898       -15.48064        -0.35382
   H       -8.06212       -17.31392         0.55301
   H       -8.97500       -16.38165         1.77709
   H       -7.57225       -17.36201         2.26343
   H       -5.18861       -15.25096         2.20860
   H       -2.76076       -13.37000         2.21607
   H       -0.79954       -14.23364         3.74702
   H       -4.40682       -16.65660         3.77848
   H       -0.63022       -18.27476         6.64615
   H        3.04057       -15.95730         6.51343
   H        1.33931       -19.22378         8.07242
   H        3.95298       -17.62000         7.82570
   H        3.10974       -20.18231         9.29467
   H        8.90116       -17.66921         9.01026
   H        7.95477       -21.83395        11.56269
*
