# ORCA input file
# SCF done       -214.485688166464          0.000581348528
! CAM-B3LYP def2-SVP def2/J RIJCOSX Grid4 TightSCF
%maxcore 5000
%tddft
    Mode sTDDFT
    Ethresh 5.0
    maxcore 5000
end

%pal
  nprocs 6
  end
* xyz 0 1
   C       -1.67217         0.17942         8.67181
   C       -2.35207        -1.04096         8.50992
   C       -1.80060        -2.19830         9.03603
   C       -0.59492        -2.15917         9.74135
   C        0.07271        -0.92489         9.89920
   C       -0.47805         0.23579         9.34399
   N        1.24665        -0.89298        10.58822
   C        1.88392        -1.97096        11.18262
   O        2.92674        -1.81263        11.77497
   C        1.17060        -3.24316        11.00431
   C       -0.00199        -3.31696        10.32073
   C        1.74435        -4.40200        11.57433
   N        2.18743        -5.35922        12.02135
   C       -3.62468        -1.09393         7.80964
   C       -4.77038        -0.38491         8.07337
   N       -5.00063         0.55941         9.09630
   O       -6.12315         1.02438         9.17661
   O       -4.08423         0.84759         9.84643
   C       -5.83154        -0.83153         7.18882
   C       -5.35723        -1.83624         6.42309
   C       -3.96331        -2.04602         6.74088
   C       -3.07853        -2.87024         6.08555
   C       -1.65793        -2.69780         5.98148
   C       -1.18550        -3.56307         5.05012
   C       -2.26946        -4.36821         4.55037
   N       -2.00616        -5.41596         3.64968
   O       -2.93689        -5.98311         3.09660
   O       -0.83738        -5.70399         3.46467
   C       -3.45079        -3.98933         5.18741
   C       -4.73580        -4.56930         5.26729
   C       -5.37580        -5.34146         4.33901
   C       -6.67369        -5.84147         4.57072
   N       -7.37082        -6.59561         3.66140
   C       -6.88553        -7.07016         2.38472
   C       -5.87807        -8.20601         2.53547
   C       -8.65424        -6.92669         4.12154
   O       -9.44375        -7.60652         3.50079
   C       -8.74300        -6.29113         5.42465
   C       -7.51164        -5.65482         5.68253
   C       -7.59668        -5.04058         6.99235
   O       -6.79334        -4.40534         7.64696
   N       -8.89545        -5.34458         7.43666
   C       -9.37798        -4.88092         8.71645
   C      -10.21113        -3.60962         8.57684
   C       -9.59473        -6.07229         6.51169
   C      -10.94610        -6.48126         6.68040
   C      -11.61373        -7.11914         5.69556
   C      -12.97519        -7.58578         5.74984
   C      -13.81260        -7.47109         4.62116
   C      -13.42562        -6.67551         3.43662
   O      -12.46495        -5.98017         3.30300
   S      -14.70360        -6.83154         2.18944
   C      -15.75794        -7.81472         3.25335
   O      -16.82752        -8.21449         2.89765
   C      -15.08730        -8.02169         4.55632
   C      -15.66076        -8.74678         5.62702
   C      -14.85218        -8.79842         6.77725
   C      -13.57541        -8.23794         6.83837
   C      -13.04325        -8.50591         8.19825
   O      -11.98896        -8.24113         8.68815
   O      -14.02664        -9.15340         8.89685
   C      -15.14755        -9.34686         8.12524
   O      -16.13099        -9.85287         8.56765
   C      -16.97052        -9.33023         5.50160
   C      -17.36626       -10.49515         6.04260
   C      -18.67475       -11.08549         5.86426
   C      -19.06463       -12.12442         6.73310
   C      -20.29788       -12.71637         6.63405
   C      -21.19472       -12.30396         5.64187
   C      -20.81780       -11.27736         4.74731
   C      -19.56127       -10.68265         4.87395
   C      -21.75254       -10.89387         3.74192
   C      -22.97055       -11.48846         3.64544
   C      -23.38524       -12.55722         4.56478
   O      -24.44394       -13.14181         4.55156
   N      -22.42260       -12.87653         5.51070
   C      -23.88790       -11.09275         2.64550
   N      -24.61246       -10.75069         1.82676
   H       -2.08873         1.07760         8.24536
   H       -2.31716        -3.14049         8.93022
   H        0.04032         1.17581         9.45727
   H        1.71369        -0.00040        10.70704
   H       -0.50385        -4.26821        10.20859
   H       -6.81391        -0.40017         7.18704
   H       -5.88300        -2.33121         5.63163
   H       -1.09461        -1.93418         6.47925
   H       -0.17425        -3.66532         4.70383
   H       -5.26573        -4.34929         6.18566
   H       -4.90779        -5.55942         3.39313
   H       -6.44430        -6.23785         1.83029
   H       -7.76855        -7.42532         1.84638
   H       -4.96226        -7.86123         3.00823
   H       -5.62885        -8.59782         1.55371
   H       -6.30457        -9.00947         3.13135
   H       -8.49053        -4.67076         9.31950
   H       -9.95144        -5.67789         9.19595
   H       -9.61042        -2.81708         8.13725
   H      -10.54866        -3.28389         9.55643
   H      -11.07992        -3.77806         7.94420
   H      -11.43195        -6.23350         7.61083
   H      -11.11433        -7.27916         4.74629
   H      -17.64432        -8.79239         4.85134
   H      -16.68473       -11.06667         6.65531
   H      -18.37910       -12.44135         7.50432
   H      -20.58592       -13.50419         7.31410
   H      -19.28421        -9.91889         4.16412
   H      -21.47607       -10.11131         3.04873
   H      -22.68505       -13.61427         6.15556
*
