# ORCA input file
# SCF done       -196.110523485691          0.000527330487
! CAM-B3LYP def2-SVP def2/J RIJCOSX Grid4 TightSCF
%maxcore 5000
%tddft
    Mode sTDDFT
    Ethresh 5.0
    maxcore 5000
end

%pal
  nprocs 6
  end
* xyz 0 1
   C        1.76507         1.30814        -2.01313
   C        1.56721         2.48404        -2.68826
   C        1.69677         2.61797        -4.08661
   N        1.79321         2.77669        -5.21850
   C        1.31174         3.70503        -2.03624
   N        1.11110         4.70225        -1.50372
   C        2.29077         0.07796        -2.59445
   C        2.83037        -0.72491        -1.54597
   C        3.43193        -1.92430        -1.80028
   C        3.50654        -2.38858        -3.13279
   C        2.94660        -1.60137        -4.18102
   C        2.33974        -0.35741        -3.89052
   C        3.01502        -2.08393        -5.50345
   C        3.61158        -3.28404        -5.78054
   C        4.16599        -4.05645        -4.74900
   C        4.11484        -3.61830        -3.45343
   C        2.59845        -0.06092        -0.25370
   O        2.95332        -0.40691         0.84834
   C        1.75025         1.12995        -0.57755
   C        1.05000         1.72628         0.42377
   C       -0.08246         2.56246         0.31808
   S       -0.67897         3.46602         1.70049
   C       -2.06252         4.13244         0.85126
   C       -2.03537         3.63646        -0.43609
   C       -0.95686         2.78446        -0.72428
   O       -1.11559         2.32612        -1.99021
   C       -2.27065         2.88351        -2.45410
   S       -2.86647         2.59194        -3.91928
   O       -2.84436         3.66574        -1.51987
   C       -2.98954         5.07818         1.35805
   N       -3.32924         5.27364         2.67329
   C       -2.88010         4.51251         3.81376
   C       -3.50944         3.12358         3.85666
   C       -4.31268         6.27359         2.80846
   O       -4.78889         6.60166         3.87697
   C       -4.54399         6.73589         1.46028
   C       -3.71878         5.98039         0.59155
   C       -3.86235         6.51644        -0.74979
   O       -3.31542         6.25847        -1.79543
   N       -4.81871         7.54431        -0.60118
   C       -5.28695         8.29302        -1.74341
   C       -6.65287         7.80539        -2.21856
   C       -5.22402         7.69088         0.70053
   C       -6.14733         8.67333         1.13161
   C       -6.53978         8.79230         2.42895
   C       -7.44642         9.78887         2.85452
   S       -7.97731         9.92872         4.51612
   C       -9.02772        11.30537         4.21320
   C       -8.91650        11.62820         2.87387
   C       -8.06139        10.79706         2.13575
   O       -8.03008        11.25994         0.85740
   C       -8.82498        12.35998         0.83446
   S       -9.07767        13.25733        -0.47911
   O       -9.35563        12.60893         2.04996
   C       -9.74980        11.91630         5.26458
   C      -10.89069        12.64510         5.10689
   C      -11.55369        13.45894         6.11056
   C      -11.07648        13.76249         7.35892
   C      -11.75599        14.57798         8.28884
   N      -12.25825        15.22527         9.09261
   C       -9.84623        13.31980         7.88860
   N       -8.85490        13.00821         8.37737
   C      -12.79098        13.96116         5.52627
   C      -12.90691        13.46184         4.19672
   C      -11.75837        12.59579         3.89568
   O      -11.60767        11.89209         2.92047
   C      -13.96539        13.77932         3.39506
   C      -14.97370        14.63455         3.89278
   C      -14.87045        15.13195         5.22444
   C      -13.76559        14.78056         6.03306
   C      -15.88579        15.97902         5.71352
   C      -16.95049        16.32237         4.92540
   C      -17.04936        15.83471         3.61362
   C      -16.08202        15.00877         3.10809
   H        3.84362        -2.51380        -0.99455
   H        1.91412         0.21556        -4.69953
   H        2.58937        -1.48435        -6.29444
   H        3.65981        -3.64465        -6.79702
   H        4.63301        -5.00068        -4.98565
   H        4.53925        -4.20914        -2.65494
   H        1.35093         1.46064         1.43170
   H       -3.19076         5.08577         4.69186
   H       -1.78905         4.44278         3.80087
   H       -4.59284         3.20576         3.89761
   H       -3.16681         2.59516         4.74118
   H       -3.23556         2.54376         2.97847
   H       -4.54562         8.13360        -2.53132
   H       -5.31716         9.35789        -1.49776
   H       -6.59570         6.75732        -2.50205
   H       -6.96607         8.38241        -3.08386
   H       -7.40133         7.91425        -1.43665
   H       -6.54535         9.35403         0.39298
   H       -6.15624         8.11982         3.18443
   H       -9.34145        11.76030         6.25430
   H      -14.02783        13.38877         2.39026
   H      -13.71972        15.17010         7.03758
   H      -15.80443        16.35324         6.72346
   H      -17.72243        16.97266         5.30857
   H      -17.89590        16.11656         3.00566
   H      -16.15278        14.63034         2.09895
*
