# ORCA input file
# SCF done       -201.708037771543          0.000679926155
! CAM-B3LYP def2-SVP def2/J RIJCOSX Grid4 TightSCF
%maxcore 5000
%tddft
    Mode sTDDFT
    Ethresh 5.0
    maxcore 5000
end

%pal
  nprocs 6
  end
* xyz 0 1
   C       -3.02801         0.82213         1.80165
   C       -3.16770        -0.23870         0.94665
   C       -3.63294        -1.51287         1.33684
   N       -4.01354        -2.56585         1.58813
   C       -2.85563        -0.20992        -0.42906
   N       -2.60999        -0.25468        -1.54961
   C       -3.27417         0.80619         3.23607
   C       -2.89612         2.06781         3.78050
   C       -3.00676         2.34104         5.11408
   C       -3.51080         1.34652         5.98080
   C       -3.90500         0.08647         5.44245
   C       -3.77764        -0.16823         4.05819
   C       -4.42135        -0.89304         6.31530
   C       -4.53958        -0.64356         7.65556
   C       -4.14647         0.59502         8.18503
   C       -3.64239         1.56861         7.36579
   C       -2.41972         2.95105         2.70900
   O       -2.12843         4.12076         2.80211
   C       -2.52329         2.13981         1.45247
   C       -2.35811         2.64397         0.20376
   C       -1.71415         3.88222        -0.07385
   S       -2.22427         4.87217        -1.42350
   C       -1.02634         6.10503        -1.10020
   C       -0.25166         5.70771        -0.02733
   C       -0.63637         4.47971         0.53909
   C        0.36014         4.13639         1.56971
   O        0.46670         3.16780         2.25655
   O        1.27639         5.16079         1.57610
   C        1.00186         6.12258         0.61974
   O        1.74576         7.02139         0.38271
   C       -0.95780         7.35996        -1.76351
   N       -1.27704         7.61728        -3.07354
   C       -1.61439         6.65213        -4.09205
   C       -0.41869         5.78538        -4.47346
   C       -1.09517         8.97897        -3.38885
   O       -1.29907         9.44343        -4.49160
   C       -0.67000         9.58075        -2.14595
   C       -0.59043         8.55881        -1.16884
   C       -0.27313         9.17637         0.10759
   O       -0.19859         8.73611         1.22930
   N       -0.10118        10.53988        -0.21236
   C        0.22128        11.50817         0.80881
   C       -1.01878        12.25084         1.30003
   C       -0.35750        10.79579        -1.53493
   C       -0.31358        12.08851        -2.11243
   C       -0.65117        12.32933        -3.40743
   C       -0.63519        13.63649        -3.95226
   O       -0.24430        14.68928        -3.20250
   C       -0.33999        15.81221        -3.94316
   C       -0.80939        15.48924        -5.21917
   C       -0.99799        14.08192        -5.22635
   C       -1.46435        13.30592        -6.29788
   N       -1.85285        12.69489        -7.18559
   C       -1.04182        16.38527        -6.27208
   N       -1.22740        17.12494        -7.12729
   C        0.01878        17.06780        -3.39289
   C        0.49451        17.18400        -2.12533
   C        0.87085        18.42252        -1.55525
   C        1.38631        18.55703        -0.29907
   C        1.81792        19.79052         0.33803
   C        1.59597        21.06554        -0.11128
   C        2.02535        22.22702         0.56630
   N        2.34828        23.20845         1.06605
   C        0.88681        21.40965        -1.28179
   N        0.31603        21.76826        -2.21121
   C        2.49352        19.43531         1.58013
   C        2.40467        18.02498         1.76100
   C        1.68369        17.42747         0.62776
   O        1.40106        16.25509         0.48609
   C        2.94813        17.40068         2.84743
   C        3.62559        18.17131         3.81773
   C        3.72594        19.58197         3.64049
   C        3.14842        20.20113         2.50855
   C        4.41055        20.34113         4.61124
   C        4.96954        19.73775         5.70487
   C        4.86945        18.34913         5.87868
   C        4.21133        17.58243         4.95561
   H       -2.70839         3.30393         5.50076
   H       -4.08905        -1.12937         3.68067
   H       -4.72042        -1.84580         5.90378
   H       -4.93636        -1.39996         8.31583
   H       -4.24580         0.77383         9.24512
   H       -3.33833         2.52403         7.76722
   H       -2.74636         2.11096        -0.65504
   H       -1.93973         7.23817        -4.95631
   H       -2.44870         6.03226        -3.75058
   H        0.39252         6.40863        -4.84157
   H       -0.70640         5.09037        -5.25665
   H       -0.05851         5.21634        -3.61913
   H        0.96731        12.20924         0.42632
   H        0.65989        10.94100         1.63405
   H       -1.50987        12.77550         0.48336
   H       -0.73438        12.97577         2.05721
   H       -1.72480        11.54854         1.73627
   H       -0.01051        12.91511        -1.48525
   H       -0.96102        11.52980        -4.06708
   H       -0.10242        17.92972        -4.03461
   H        0.60091        16.29659        -1.51828
   H        0.75325        19.29943        -2.17875
   H        2.86584        16.33000         2.96236
   H        3.24580        21.26973         2.40228
   H        4.48435        21.40980         4.47357
   H        5.49253        20.32761         6.44243
   H        5.31690        17.88995         6.74730
   H        4.13163        16.51292         5.08396
*
