# ORCA input file
# SCF done       -231.669545821367          0.000838494616
! CAM-B3LYP def2-SVP def2/J RIJCOSX Grid4 TightSCF
%maxcore 5000
%tddft
    Mode sTDDFT
    Ethresh 5.0
    maxcore 5000
end

%pal
  nprocs 6
  end
* xyz 0 1
   C       -0.08628         6.72891         2.76296
   C        1.00214         6.66463         1.92008
   C        1.69584         7.80710         1.48384
   N        2.20513         8.73692         1.04249
   C        1.67840         5.44019         1.72677
   N        2.34159         4.50420         1.75124
   C       -0.34238         7.80005         3.71897
   C       -0.99430         7.21742         4.84860
   C       -1.28323         7.95416         5.96047
   C       -0.94623         9.32729         5.98514
   C       -0.30621         9.91431         4.85455
   C       -0.00168         9.12378         3.72147
   C        0.02517        11.28314         4.89685
   C       -0.26001        12.03875         6.00218
   C       -0.88979        11.46075         7.11388
   C       -1.22457        10.13323         7.10619
   C       -1.27198         5.79099         4.58523
   O       -1.71288         4.95743         5.32883
   C       -0.95313         5.63469         3.11874
   C       -1.84129         4.90027         2.38491
   C       -2.35002         5.24308         1.10319
   C       -3.71906         5.25493         0.81371
   N       -4.76759         4.59861         1.49177
   O       -5.90312         4.90846         1.17946
   O       -4.48952         3.75909         2.32891
   C       -3.96495         6.15391        -0.26921
   C       -2.78198         6.70288        -0.66927
   C       -1.72799         6.08534         0.07341
   C       -0.42186         5.97762        -0.37029
   C        0.31224         4.75042        -0.36116
   C        1.33993         4.86474        -1.24545
   C        1.35575         6.19506        -1.78926
   N        2.43953         6.62215        -2.59075
   O        2.53654         7.80162        -2.87523
   O        3.23613         5.76817        -2.93159
   C        0.27623         6.91345        -1.27856
   C       -0.16531         8.24708        -1.42035
   C        0.05651         9.05564        -2.49935
   C       -0.44461        10.35027        -2.73912
   N       -1.02464        11.26823        -1.89621
   C       -1.12115        11.24854        -0.45393
   C        0.24537        11.34588         0.21467
   C       -1.41342        12.43689        -2.58617
   O       -1.92761        13.39120        -2.04819
   C       -1.06329        12.18055        -3.97019
   C       -0.46345        10.91466        -4.02588
   C       -0.15093        10.61506        -5.41181
   O        0.32495         9.64496        -5.94947
   N       -0.58186        11.76807        -6.11047
   C       -0.38430        11.89206        -7.53551
   C        0.79509        12.80230        -7.86692
   C       -1.13292        12.70063        -5.27302
   C       -1.70247        13.91362        -5.71638
   C       -2.24033        14.84268        -4.87355
   C       -2.85258        16.01423        -5.38765
   O       -2.91919        16.13261        -6.72260
   C       -3.53939        17.30055        -7.04881
   C       -3.87058        17.96851        -5.88723
   C       -3.44436        17.15937        -4.80926
   C       -3.65790        17.60200        -3.44152
   O       -4.08945        18.68804        -3.14931
   C       -3.32671        16.60288        -2.29574
   F       -2.01160        16.34448        -2.23460
   F       -3.68705        17.09212        -1.11215
   F       -3.97406        15.43928        -2.45882
   C       -3.67272        17.51471        -8.44552
   C       -4.27516        18.51157        -9.14516
   C       -4.33087        18.57793       -10.60207
   C       -3.71964        17.73262       -11.49099
   C       -3.81221        17.86133       -12.89477
   N       -3.84111        17.90142       -14.04120
   C       -2.90785        16.62348       -11.17078
   N       -2.23705        15.70601       -11.00236
   C       -5.14750        19.72882       -10.96275
   C       -5.56296        20.38689        -9.76980
   C       -5.02778        19.67763        -8.59944
   O       -5.18097        19.98209        -7.43767
   C       -6.34629        21.50542        -9.79492
   C       -6.76048        22.02815       -11.03966
   C       -6.35118        21.37550       -12.23924
   C       -5.53974        20.22003       -12.18139
   C       -6.77143        21.90399       -13.47705
   C       -7.55787        23.02263       -13.52908
   C       -7.96018        23.66390       -12.34765
   C       -7.56982        23.17760       -11.12920
   H       -1.76092         7.49632         6.81356
   H        0.48871         9.58386         2.87727
   H        0.51677        11.72462         4.04233
   H       -0.00041        13.08622         6.02468
   H       -1.10796        12.07126         7.97687
   H       -1.70818         9.68231         7.95995
   H       -2.44808         4.20226         2.95422
   H       -4.93986         6.33328        -0.68139
   H       -2.63699         7.34588        -1.51594
   H        0.01294         3.86827         0.17096
   H        2.05460         4.10996        -1.51353
   H       -0.81042         8.58828        -0.62295
   H        0.62017         8.66708        -3.33645
   H       -1.66761        10.36167        -0.12229
   H       -1.71835        12.12922        -0.19616
   H        0.86989        10.48471        -0.01080
   H        0.11289        11.41197         1.29108
   H        0.75871        12.24298        -0.12236
   H       -1.30158        12.25794        -8.00450
   H       -0.18183        10.88104        -7.89937
   H        0.64004        13.80420        -7.47292
   H        0.91344        12.86640        -8.94456
   H        1.70959        12.39873        -7.43951
   H       -1.72186        14.09808        -6.78104
   H       -2.20743        14.67515        -3.81015
   H       -4.36488        18.91522        -5.80437
   H       -3.21230        16.71332        -9.01024
   H       -6.64556        21.98368        -8.87420
   H       -5.25127        19.75038       -13.10801
   H       -6.45906        21.40731       -14.38380
   H       -7.87458        23.41985       -14.48160
   H       -8.58103        24.54503       -12.40788
   H       -7.87631        23.66688       -10.21645
*
