# ORCA input file
# SCF done       -227.488885101241          0.000870252868
! CAM-B3LYP def2-SVP def2/J RIJCOSX Grid4 TightSCF
%maxcore 5000
%tddft
    Mode sTDDFT
    Ethresh 5.0
    maxcore 5000
end

%pal
  nprocs 6
  end
* xyz 0 1
   C        5.76896         9.94206         2.04936
   C        5.07081        10.83754         1.28772
   C        5.33190        12.22520         1.26853
   N        5.49498        13.35922         1.21149
   C        4.06038        10.48252         0.37586
   N        3.25645        10.26793        -0.41690
   C        6.95943        10.22236         2.83291
   C        7.62984         8.99260         3.10960
   C        8.79965         8.95949         3.81383
   C        9.35667        10.17027         4.28285
   C        8.68175        11.39941         4.02346
   C        7.47365        11.40604         3.29173
   C        9.24455        12.59895         4.50578
   C       10.41896        12.58832         5.20757
   C       11.08370        11.37873         5.46058
   C       10.56428        10.19605         5.00821
   C        6.85274         7.87402         2.55522
   O        7.12426         6.69772         2.52690
   C        5.58334         8.49928         2.06872
   C        4.47484         7.75136         1.90942
   C        3.11727         8.20931         1.78887
   C        2.44104         9.09645         2.61033
   N        2.89535         9.73829         3.77444
   O        2.06943        10.33907         4.43863
   O        4.08408         9.67712         4.06159
   C        1.07778         9.22997         2.15402
   C        0.94057         8.51378         1.01467
   C        2.18493         7.84998         0.72220
   C        2.46514         7.11676        -0.41570
   C        3.42764         6.08472        -0.59159
   C        3.19114         5.47124        -1.78676
   C        2.11278         6.12803        -2.46046
   N        1.74612         5.73302        -3.75811
   O        2.50495         4.97395        -4.33808
   O        0.70262         6.14539        -4.23820
   C        1.66957         7.19658        -1.66969
   C        0.94507         8.36428        -1.96373
   C        0.01170         8.56274        -2.95325
   C       -0.57547         9.77639        -3.34240
   N       -0.20713        11.07561        -3.06843
   C        0.86989        11.56642        -2.23722
   C        0.41181        11.77834        -0.79672
   C       -1.02839        12.00026        -3.72286
   O       -0.88610        13.20661        -3.64582
   C       -1.98903        11.19574        -4.45387
   C       -1.68801         9.85357        -4.20796
   C       -2.66011         9.03039        -4.90972
   O       -2.83699         7.83906        -4.96461
   N       -3.48706         9.97286        -5.56902
   C       -4.55755         9.54610        -6.43783
   C       -4.15561         9.62157        -7.90845
   C       -3.10812        11.26196        -5.31307
   C       -3.74908        12.40574        -5.81388
   C       -3.30341        13.66363        -5.49842
   C       -3.88220        14.85749        -5.93914
   S       -5.26816        14.91409        -6.97749
   C       -5.28764        16.64732        -6.99255
   C       -4.22597        17.17309        -6.19901
   C       -3.42939        16.15816        -5.60197
   C       -2.34155        16.48981        -4.78523
   C       -2.05058        17.82071        -4.56677
   C       -0.95686        18.18544        -3.74504
   N       -0.07138        18.47348        -3.07860
   C       -2.84427        18.83967        -5.16275
   C       -2.52036        20.19660        -4.91935
   N       -2.26107        21.29495        -4.72626
   C       -3.91860        18.52068        -5.96886
   C       -6.19874        17.46107        -7.67101
   C       -7.27052        17.13412        -8.46663
   C       -8.15531        18.07897        -9.12134
   C       -8.08856        19.44930        -9.07482
   C       -8.98872        20.30613        -9.74320
   N       -9.68799        21.05817       -10.25580
   C       -7.12941        20.20171        -8.36661
   N       -6.37561        20.87225        -7.81638
   C       -9.15289        17.30747        -9.85619
   C       -8.88903        15.92032        -9.66102
   C       -7.71486        15.77326        -8.79494
   O       -7.20748        14.72719        -8.42090
   C       -9.66144        14.94868       -10.22970
   C      -10.75755        15.32657       -11.03687
   C      -11.02950        16.71088       -11.23759
   C      -10.21039        17.69432       -10.63511
   C      -12.12535        17.07731       -12.04413
   C      -12.91628        16.12325       -12.62567
   C      -12.64762        14.76100       -12.42749
   C      -11.59081        14.37072       -11.64974
   H        9.29461         8.02057         4.01307
   H        6.97218        12.34625         3.12346
   H        8.72974        13.52717         4.30653
   H       10.84266        13.51205         5.57198
   H       12.00899        11.38884         6.01687
   H       11.07183         9.26236         5.20139
   H        4.62378         6.67707         1.94797
   H        0.33904         9.81231         2.66994
   H        0.03595         8.37030         0.45624
   H        4.15625         5.77397         0.12899
   H        3.71050         4.62532        -2.19732
   H        1.18091         9.18491        -1.30314
   H       -0.36042         7.70784        -3.50460
   H        1.16788        12.53136        -2.65793
   H        1.71930        10.88573        -2.28915
   H       -0.33522        12.56715        -0.75606
   H        1.26217        12.06959        -0.18780
   H       -0.01808        10.87081        -0.37963
   H       -5.44730        10.15172        -6.24532
   H       -4.76961         8.50781        -6.16829
   H       -3.90556        10.64088        -8.19431
   H       -4.97624         9.27573        -8.53030
   H       -3.29152         8.98742        -8.09006
   H       -4.61178        12.28791        -6.45432
   H       -2.43657        13.75226        -4.85741
   H       -1.73385        15.72371        -4.32831
   H       -4.49919        19.32011        -6.40447
   H       -6.01686        18.51767        -7.53566
   H       -9.43950        13.90457       -10.06585
   H      -10.44489        18.73233       -10.80813
   H      -12.32851        18.12740       -12.19400
   H      -13.75360        16.41416       -13.24179
   H      -13.28165        14.02198       -12.89371
   H      -11.37914        13.32307       -11.49363
*
