# ORCA input file
# SCF done       -223.408853025227          0.000795461800
! CAM-B3LYP def2-SVP def2/J RIJCOSX Grid4 TightSCF
%maxcore 5000
%tddft
    Mode sTDDFT
    Ethresh 5.0
    maxcore 5000
end

%pal
  nprocs 6
  end
* xyz 0 1
   C       -0.78926         1.32028         1.00306
   C       -0.74878        -0.01084         0.69491
   C       -0.18437        -0.99932         1.52877
   N        0.25695        -1.83869         2.17455
   C       -1.21454        -0.53788        -0.52908
   N       -1.53742        -1.00041        -1.52828
   C       -0.20203         1.96567         2.16741
   C       -0.29047         3.38051         2.00326
   C        0.19421         4.24373         2.94516
   C        0.79246         3.72455         4.11444
   C        0.87561         2.31199         4.28875
   C        0.37044         1.44175         3.29634
   C        1.46608         1.80618         5.46457
   C        1.95228         2.65295         6.42343
   C        1.87112         4.04294         6.25065
   C        1.30446         4.56748         5.12068
   C       -0.97983         3.68847         0.74373
   O       -1.25158         4.78052         0.28985
   C       -1.35229         2.36657         0.16597
   C       -2.23921         2.24489        -0.84737
   C       -2.71297         3.37055        -1.59910
   C       -4.01710         3.80803        -1.66640
   N       -5.09988         3.19008        -1.01767
   O       -6.21362         3.63577        -1.21496
   O       -4.84952         2.23555        -0.29603
   C       -4.07798         5.04085        -2.41156
   C       -2.81423         5.38311        -2.76284
   C       -1.90368         4.36261        -2.30738
   C       -0.56164         4.23766        -2.58898
   C        0.19431         3.02451        -2.64908
   C        1.42733         3.30859        -3.14451
   C        1.52984         4.72621        -3.37530
   N        2.76308         5.32430        -3.69174
   O        2.83348         6.54152        -3.75250
   O        3.71417         4.57955        -3.85507
   C        0.32430         5.33080        -3.03218
   C       -0.04820         6.68860        -2.90142
   C        0.34280         7.71807        -3.70578
   C       -0.00284         9.08002        -3.57479
   N       -0.45210         9.77125        -2.47231
   C       -0.52150         9.32539        -1.09731
   C        0.84911         8.94727        -0.54643
   C       -0.67608        11.12929        -2.76781
   O       -1.05100        11.94259        -1.94725
   C       -0.36817        11.25635        -4.17744
   C        0.05324         9.99670        -4.63371
   C        0.32954        10.09485        -6.05567
   O        0.68002         9.27959        -6.87520
   N        0.06187        11.45004        -6.35921
   C        0.27981        11.97641        -7.68637
   C        1.59847        12.73847        -7.78165
   C       -0.35178        12.15180        -5.26020
   C       -0.70826        13.51860        -5.29031
   C       -1.08492        14.19327        -4.16869
   C       -1.46255        15.55567        -4.14122
   S       -1.85915        16.26017        -2.59254
   C       -2.24033        17.81122        -3.28798
   C       -2.02869        17.77165        -4.65209
   C       -1.60407        16.51755        -5.14061
   C       -1.42058        16.58626        -6.59516
   O       -1.01126        15.73010        -7.34311
   C       -1.84228        17.98502        -7.00914
   C       -2.02449        18.77880        -5.72694
   O       -2.07260        19.97623        -5.62751
   C       -2.66260        18.89761        -2.47157
   C       -3.54470        19.85505        -2.85587
   C       -3.88488        21.05997        -2.11722
   C       -3.17019        21.59592        -1.07963
   C       -3.51543        22.79437        -0.41867
   N       -3.75228        23.75329         0.16558
   C       -1.98585        21.04412        -0.54605
   N       -1.01478        20.65523        -0.07334
   C       -5.06304        21.64569        -2.73926
   C       -5.42224        20.85660        -3.87021
   C       -4.49104        19.72955        -4.00825
   O       -4.54436        18.83948        -4.82833
   C       -6.49276        21.17236        -4.65822
   C       -7.26407        22.31393        -4.34804
   C       -6.91492        23.10458        -3.21427
   C       -5.80391        22.75189        -2.41507
   C       -7.69539        24.23865        -2.91064
   C       -8.76786        24.57888        -3.68953
   C       -9.10991        23.80101        -4.80608
   C       -8.37407        22.69304        -5.12865
   H        0.11822         5.31145         2.80188
   H        0.43938         0.37740         3.45746
   H        1.52711         0.73559         5.59256
   H        2.40210         2.25606         7.32091
   H        2.25903         4.69601         7.01779
   H        1.23876         5.63680         4.98321
   H       -2.69379         1.28633        -1.06936
   H       -4.99095         5.56516        -2.61966
   H       -2.53184         6.21145        -3.38352
   H       -0.19529         2.04918        -2.42893
   H        2.22991         2.62270        -3.34038
   H       -0.75994         6.86843        -2.10853
   H        0.91578         7.50704        -4.59818
   H       -1.22722         8.49695        -0.99940
   H       -0.92225        10.17763        -0.53951
   H        1.29773         8.14056        -1.12045
   H        0.74709         8.62528         0.48586
   H        1.51558         9.80579        -0.57955
   H       -0.55598        12.62149        -7.96764
   H        0.30462        11.11069        -8.35376
   H        1.59808        13.59922        -7.11734
   H        1.74267        13.08738        -8.79980
   H        2.42782        12.08800        -7.51464
   H       -0.67752        14.03243        -6.23994
   H       -1.10227        13.67923        -3.21545
   H       -2.80546        17.93021        -7.52428
   H       -1.13511        18.44894        -7.69812
   H       -2.25095        18.91848        -1.47014
   H       -6.74465        20.55947        -5.51088
   H       -5.56920        23.36566        -1.55991
   H       -7.42720        24.83522        -2.05120
   H       -9.35871        25.44999        -3.44968
   H       -9.95951        24.08414        -5.40905
   H       -8.63297        22.09063        -5.98695
*
