# ORCA input file
# SCF done       -225.412254144160          0.000638199865
! CAM-B3LYP def2-SVP def2/J RIJCOSX Grid4 TightSCF
%maxcore 5000
%tddft
    Mode sTDDFT
    Ethresh 5.0
    maxcore 5000
end

%pal
  nprocs 6
  end
* xyz 0 1
   C        7.12570         6.28582        -4.66122
   C        8.08765         5.32161        -4.54595
   C        8.73998         4.71917        -5.64264
   N        9.30040         4.20340        -6.50049
   C        8.49907         4.78582        -3.30660
   N        8.82175         4.29755        -2.31976
   C        6.54488         6.80220        -5.89262
   C        5.46091         7.67303        -5.56455
   C        4.70450         8.28843        -6.52264
   C        5.01515         8.06230        -7.88139
   C        6.10514         7.20819        -8.22174
   C        6.86296         6.57943        -7.20652
   C        6.40619         7.00439        -9.58363
   C        5.66702         7.61229       -10.56234
   C        4.59264         8.44986       -10.22609
   C        4.27321         8.66939        -8.91356
   C        5.35018         7.78556        -4.11288
   O        4.59229         8.47782        -3.46273
   C        6.43255         6.92798        -3.55694
   C        6.72882         6.96774        -2.23834
   C        5.87295         7.66669        -1.32077
   C        6.19421         8.77281        -0.57117
   N        7.46834         9.37039        -0.53795
   O        7.63988        10.30438         0.21989
   O        8.32203         8.90508        -1.27726
   C        5.01046         9.28163         0.08042
   C        3.95830         8.52131        -0.30284
   C        4.42933         7.45762        -1.15728
   C        3.74001         6.33080        -1.54261
   C        4.30306         5.02955        -1.75548
   C        3.29455         4.11748        -1.76862
   C        2.04123         4.80893        -1.64785
   N        0.80021         4.15244        -1.68905
   O       -0.21708         4.82169        -1.57777
   O        0.80887         2.94191        -1.82265
   C        2.27811         6.17767        -1.55923
   C        1.32496         7.21971        -1.65584
   C        1.57489         8.41575        -2.25757
   C        0.62512         9.44675        -2.48314
   N       -0.42396         9.81483        -1.67807
   C       -0.63741         9.46945        -0.28954
   C        0.23089        10.33226         0.62327
   C       -1.18514        10.85919        -2.25242
   O       -2.14153        11.37133        -1.71671
   C       -0.54808        11.09798        -3.52986
   C        0.56714        10.24274        -3.63300
   C        1.14283        10.43867        -4.94498
   O        2.07570         9.92012        -5.52029
   N        0.33477        11.43428        -5.54369
   C        0.67807        11.93217        -6.85367
   C        1.34030        13.30596        -6.78683
   C       -0.68338        11.83233        -4.70949
   C       -1.73840        12.75738        -4.90718
   C       -2.06671        13.48165        -6.00653
   C       -3.18881        14.35228        -6.05448
   O       -3.45519        14.98423        -7.22474
   C       -4.55039        15.75457        -7.08050
   C       -5.00877        15.60734        -5.76070
   C       -4.13356        14.71802        -5.11378
   N       -6.16714        16.13551        -5.12496
   O       -7.06037        16.56725        -5.82162
   O       -6.18994        16.08176        -3.91491
   C       -4.94203        16.50166        -8.22291
   C       -5.84124        17.51587        -8.27985
   C       -6.14031        18.15449        -9.51133
   C       -6.90196        19.27682        -9.62792
   C       -7.35417        19.91026       -10.85604
   C       -6.92355        19.63332       -12.12705
   C       -7.39519        20.29261       -13.28258
   N       -7.73630        20.78719       -14.26031
   C       -5.93499        18.68527       -12.46466
   N       -5.13256        17.94155       -12.81349
   C       -8.33248        20.92763       -10.49207
   C       -8.40513        21.00729        -9.07095
   C       -7.47613        20.03409        -8.47545
   O       -7.20547        19.90123        -7.30365
   C       -9.23731        21.88543        -8.43835
   C      -10.05929        22.73450        -9.21207
   C      -10.00076        22.65461       -10.63413
   C       -9.12427        21.74030       -11.26123
   C      -10.83040        23.50260       -11.39620
   C      -11.67594        24.38797       -10.78508
   C      -11.73103        24.46704        -9.38528
   C      -10.93988        23.65797        -8.61542
   H        3.88170         8.92923        -6.24343
   H        7.68265         5.93949        -7.49362
   H        7.23227         6.35756        -9.83971
   H        5.90634         7.44995       -11.60245
   H        4.02109         8.91923       -11.01276
   H        3.44826         9.31043        -8.64101
   H        7.65057         6.55276        -1.84992
   H        5.01500        10.12861         0.73955
   H        2.94872         8.59777         0.04941
   H        5.35500         4.81652        -1.77297
   H        3.37571         3.05031        -1.85309
   H        0.31336         6.95048        -1.38054
   H        2.53013         8.57598        -2.74401
   H       -0.43683         8.41238        -0.12565
   H       -1.69302         9.66707        -0.08514
   H        1.28439        10.21654         0.37568
   H        0.07871        10.04340         1.65915
   H       -0.03685        11.38026         0.51243
   H       -0.20957        11.94179        -7.49068
   H        1.38721        11.20773        -7.26586
   H        0.69308        14.03288        -6.30185
   H        1.56996        13.65391        -7.79021
   H        2.26707        13.24139        -6.22199
   H       -2.36430        12.85196        -4.02932
   H       -1.50421        13.43519        -6.92516
   H       -4.21470        14.39593        -4.09623
   H       -4.39902        16.22588        -9.11995
   H       -6.36051        17.85899        -7.39754
   H       -5.75555        17.68248       -10.40679
   H       -9.27048        21.92715        -7.35987
   H       -9.10620        21.70235       -12.33885
   H      -10.78389        23.43912       -12.47343
   H      -12.30757        25.03283       -11.37733
   H      -12.40381        25.17174        -8.92015
   H      -10.97813        23.71362        -7.53749
*
