# ORCA input file
# SCF done       -189.357219205316          0.000888511735
! CAM-B3LYP def2-SVP def2/J RIJCOSX Grid4 TightSCF
%maxcore 5000
%tddft
    Mode sTDDFT
    Ethresh 5.0
    maxcore 5000
end

%pal
  nprocs 6
  end
* xyz 0 1
   C       -0.56832         1.26547        -7.50269
   S       -1.84967         2.39173        -7.84171
   C       -0.67422         3.75324        -8.00216
   O       -0.98425         4.86134        -8.31463
   N        0.56781         3.30394        -7.67014
   C        0.71348         1.98049        -7.30426
   O        1.71446         1.52966        -6.80726
   C        1.70374         4.20100        -7.68905
   C       -0.72740        -0.07123        -7.39872
   C        0.34273        -1.01876        -7.35176
   C        1.47704        -1.09336        -8.13934
   N        1.89624        -0.24831        -9.18151
   O        1.25987         0.76798        -9.42718
   O        2.87591        -0.59351        -9.81594
   C        2.17414        -2.32538        -7.84879
   C        1.47198        -3.01974        -6.92215
   C        0.31180        -2.25644        -6.55412
   C       -0.59151        -2.51994        -5.54646
   C       -1.36665        -1.54980        -4.83983
   C       -1.95993        -2.15764        -3.77743
   C       -1.62889        -3.55317        -3.77919
   N       -2.21896        -4.40475        -2.83065
   O       -1.83212        -5.56080        -2.72588
   O       -3.10691        -3.93371        -2.14114
   C       -0.80294        -3.82479        -4.87981
   C       -0.38068        -5.01769        -5.49457
   C       -0.23146        -6.25481        -4.92062
   C        0.14602        -7.38166        -5.66629
   N        0.30715        -8.63162        -5.12196
   C        0.08207        -9.00674        -3.74348
   C       -1.40220        -9.08386        -3.39845
   C        0.68751        -9.58096        -6.07891
   O        0.89215       -10.75105        -5.82891
   C        0.77181        -8.82891        -7.31994
   C        0.43686        -7.49642        -7.04179
   C        0.52243        -6.74423        -8.28140
   O        0.32178        -5.57341        -8.53277
   N        0.90534        -7.69408        -9.23921
   C        1.13710        -7.31719       -10.61492
   C        2.62385        -7.14819       -10.91436
   C        1.06438        -8.94531        -8.69432
   C        1.43527       -10.08418        -9.42566
   C        1.59304       -11.31450        -8.84191
   C        1.95944       -12.48481        -9.53339
   C        2.22203       -12.66611       -10.88459
   C        2.54627       -14.02452       -11.12038
   C        2.47506       -14.69870        -9.80906
   C        2.12506       -13.77451        -8.87817
   C        2.72229       -16.05157        -9.54835
   N        2.92102       -17.15632        -9.30470
   C        2.85571       -14.61737       -12.33016
   C        3.16309       -15.97790       -12.57728
   C        3.38723       -16.16235       -13.93061
   C        3.22654       -14.86964       -14.58447
   C        2.91278       -13.94226       -13.64329
   C        2.68772       -12.58416       -13.89231
   N        2.50657       -11.47141       -14.11529
   C        3.70496       -17.39286       -14.54784
   C        3.89206       -17.58188       -15.88463
   C        4.19517       -18.84269       -16.43834
   C        4.37219       -19.08673       -17.76415
   S        4.26796       -17.92139       -19.05606
   C        4.62456       -19.18253       -20.29235
   O        4.68799       -18.96632       -21.46418
   N        4.79919       -20.38038       -19.66503
   C        4.67993       -20.42411       -18.28504
   O        4.81256       -21.43031       -17.63165
   C        5.10005       -21.56916       -20.43478
   H        2.12120         4.25147        -8.69535
   H        2.45146         3.80282        -7.00486
   H        1.38320         5.19373        -7.37833
   H       -1.73127        -0.47698        -7.38884
   H        3.09938        -2.59955        -8.31831
   H        1.77481        -3.93770        -6.45984
   H       -1.37668        -0.49935        -5.05409
   H       -2.58049        -1.70388        -3.02758
   H       -0.15188        -4.92437        -6.54877
   H       -0.39755        -6.38185        -3.86361
   H        0.59199        -8.29834        -3.08578
   H        0.54107        -9.99246        -3.62698
   H       -1.86735        -8.10245        -3.43100
   H       -1.51611        -9.48142        -2.39424
   H       -1.91551        -9.74451        -4.09311
   H        0.62332        -6.36290       -10.75857
   H        0.68847        -8.06211       -11.27697
   H        3.04549        -6.36957       -10.28348
   H        2.75561        -6.86143       -11.95349
   H        3.16766        -8.07321       -10.73647
   H        1.59840        -9.97466       -10.48776
   H        1.43066       -11.41294        -7.77617
   H        2.18732       -11.91243       -11.64546
   H        1.98615       -13.93996        -7.82593
   H        3.20743       -16.74411       -11.82847
   H        3.34122       -14.68507       -15.63593
   H        3.79478       -18.24540       -13.88593
   H        3.80507       -16.75379       -16.57482
   H        4.29544       -19.69462       -15.77695
   H        4.32564       -21.73175       -21.18402
   H        5.13522       -22.40446       -19.73723
   H        6.06151       -21.45710       -20.93619
*
