# ORCA input file
# SCF done       -215.673408223864          0.000785291167
! CAM-B3LYP def2-SVP def2/J RIJCOSX Grid4 TightSCF
%maxcore 5000
%tddft
    Mode sTDDFT
    Ethresh 5.0
    maxcore 5000
end

%pal
  nprocs 6
  end
* xyz 0 1
   C        0.12630         1.96851         3.94703
   C       -0.26403         3.27636         4.04798
   C        0.69141         4.30360         4.04029
   C        2.02340         4.00954         3.93181
   C        2.46064         2.67349         3.82899
   C        3.83670         2.36405         3.72999
   C        4.22536         1.05492         3.63941
   C        3.24792         0.01695         3.62132
   C        1.91347         0.28722         3.72157
   C        1.48932         1.63055         3.83430
   C        3.92249        -1.28221         3.46602
   O        3.43265        -2.38835         3.46093
   C        5.36328        -0.95294         3.25096
   C        5.55053         0.44834         3.56625
   C        6.70938         1.05023         3.98423
   C        7.93955         0.38196         4.13181
   N        8.95615        -0.12619         4.29785
   C        6.78500         2.39165         4.41524
   N        6.90247         3.47283         4.78162
   C        6.18723        -1.91728         2.75841
   C        7.44952        -1.76513         2.14157
   C        7.99126        -0.64121         1.53538
   C        9.26149        -0.87916         1.02704
   C        9.70003        -2.20059         1.24357
   S        8.53297        -3.14762         2.04105
   C       11.01351        -2.32878         0.72941
   C       11.40486        -1.08910         0.18601
   C       10.32161        -0.13534         0.36687
   C       10.30318         1.18826         0.04055
   C       11.39261         1.83782        -0.57838
   N       12.26911         2.37615        -1.08387
   C        9.17793         1.99383         0.31751
   N        8.25439         2.63382         0.54679
   C       12.69221        -1.11377        -0.34247
   C       13.28527        -2.35763        -0.19253
   S       12.23549        -3.51231         0.60728
   C       14.58971        -2.74046        -0.62071
   C       15.14098        -3.98558        -0.32678
   O       14.39327        -4.85021         0.44507
   C       14.86375        -4.98613         1.77928
   C       16.41847        -4.39519        -0.78721
   O       16.90033        -5.64579        -0.53048
   C       16.06432        -6.76853        -0.77369
   C       17.27310        -3.53971        -1.48816
   C       16.75510        -2.24603        -1.76229
   C       15.42553        -1.86186        -1.36148
   N       15.23230        -0.63008        -1.78769
   O       16.34864        -0.26901        -2.40660
   N       17.27546        -1.21934        -2.40523
   C       18.56534        -3.94221        -1.93343
   C       19.46722        -3.17938        -2.66124
   C       20.62824        -3.88885        -2.95236
   C       20.60951        -5.19905        -2.43547
   S       19.16528        -5.55270        -1.59566
   C       21.82207        -5.83614        -2.78367
   C       22.61774        -4.92964        -3.52223
   C       21.89013        -3.67554        -3.64827
   C       22.29577        -2.53777        -4.27821
   C       23.54613        -2.41007        -4.92333
   N       24.55101        -2.26291        -5.45424
   C       21.48886        -1.37955        -4.33412
   N       20.84841        -0.43061        -4.39172
   C       23.83508        -5.46750        -3.91589
   C       23.99202        -6.78104        -3.48823
   S       22.57871        -7.34090        -2.57462
   C       25.02244        -7.73160        -3.62671
   C       26.23352        -7.68647        -4.26164
   C       27.17616        -8.79633        -4.27658
   C       27.02553       -10.02925        -3.69325
   C       27.99246       -11.05588        -3.75423
   N       28.72481       -11.94031        -3.75930
   C       25.91600       -10.48676        -2.95216
   N       25.06335       -10.95341        -2.33856
   C       28.34771        -8.37860        -5.03850
   C       28.13899        -7.04799        -5.49585
   C       29.06666        -6.38222        -6.24366
   C       30.27622        -7.03200        -6.57523
   C       31.27267        -6.39882        -7.34353
   C       32.43696        -7.04924        -7.65094
   C       32.65535        -8.36082        -7.20338
   C       31.70724        -9.00414        -6.45537
   C       30.49642        -8.36421        -6.12051
   C       29.51479        -9.02674        -5.34838
   C       26.82581        -6.56806        -5.03792
   O       26.35052        -5.47615        -5.27005
   H       -0.60503         1.17348         3.95215
   H       -1.31088         3.52633         4.13412
   H        0.36653         5.32998         4.12160
   H        2.76324         4.79633         3.92882
   H        4.55076         3.17252         3.71531
   H        1.18914        -0.51372         3.71520
   H        5.78701        -2.92602         2.79711
   H        7.45701         0.28672         1.44202
   H       13.19780        -0.29162        -0.81520
   H       14.79733        -4.03302         2.31263
   H       15.89802        -5.33825         1.80826
   H       14.20900        -5.71361         2.25437
   H       16.74198        -7.58883        -1.00889
   H       15.39772        -6.58843        -1.61890
   H       15.47034        -7.02994         0.10335
   H       19.25602        -2.16541        -2.94741
   H       24.59057        -4.95767        -4.48768
   H       24.78862        -8.66510        -3.12848
   H       28.87769        -5.37239        -6.57634
   H       31.09848        -5.38896        -7.68495
   H       33.19594        -6.55692        -8.24038
   H       33.57952        -8.85949        -7.45451
   H       31.87075       -10.01403        -6.10865
   H       29.71588       -10.03433        -5.02205
*
