# ORCA input file
# SCF done       -208.375115436760          0.000950074958
! CAM-B3LYP def2-SVP def2/J RIJCOSX Grid4 TightSCF
%maxcore 5000
%tddft
    Mode sTDDFT
    Ethresh 5.0
    maxcore 5000
end

%pal
  nprocs 6
  end
* xyz 0 1
   C       -0.48464         3.35597        -2.53862
   C       -0.79815         4.31579        -3.46244
   C        0.21757         5.03702        -4.10767
   C        1.53230         4.78958        -3.82014
   C        1.89083         3.81075        -2.87130
   C        3.24725         3.56263        -2.55927
   C        3.55817         2.61094        -1.62597
   C        2.52242         1.86021        -0.99600
   C        1.20452         2.08391        -1.27380
   C        0.85852         3.07586        -2.21887
   C        3.12355         0.87503        -0.08277
   O        2.56717         0.09877         0.65901
   C        4.59797         0.98516        -0.30119
   C        4.84219         2.18189        -1.08158
   C        5.98683         2.93581        -1.09884
   C        7.14920         2.63081        -0.36534
   N        8.11376         2.44320         0.22931
   C        6.10406         4.16854        -1.77562
   N        6.25456         5.17813        -2.29970
   C        5.40122        -0.01108         0.15835
   C        6.73356        -0.30846        -0.21235
   C        7.41149         0.04598        -1.36882
   C        8.72243        -0.41413        -1.37121
   C        9.04971        -1.13580        -0.20716
   S        7.73519        -1.27102         0.86516
   C       10.41846        -1.49407        -0.27627
   C       10.95716        -1.00069        -1.48145
   C        9.90680        -0.30423        -2.20811
   C        9.99660         0.36120        -3.39395
   C       11.17913         0.44397        -4.16162
   N       12.11458         0.52817        -4.81801
   C        8.87825         1.02817        -3.94051
   N        7.96274         1.56626        -4.37340
   C       12.31770        -1.26418        -1.61783
   C       12.81630        -1.95094        -0.52198
   S       11.58156        -2.28697         0.68274
   C       14.16128        -2.32595        -0.28260
   C       15.28770        -2.10430        -1.04491
   C       15.64017        -1.50837        -2.34231
   O       14.94550        -1.00602        -3.19076
   N       17.02415        -1.63481        -2.43145
   C       17.78136        -1.16618        -3.56582
   C       17.60470        -2.24050        -1.32804
   O       18.78885        -2.43674        -1.17967
   C       16.48408        -2.55319        -0.43876
   C       16.32254        -3.14227         0.79263
   S       14.61690        -3.14238         1.20608
   C       17.30032        -3.65349         1.67859
   C       17.06528        -4.28360         2.89090
   C       18.25205        -4.60887         3.53885
   C       19.39213        -4.21082         2.81179
   S       19.01161        -3.47046         1.32312
   C       20.54844        -4.53750         3.56548
   C       20.13027        -5.15186         4.76931
   C       18.67719        -5.22298         4.78550
   C       17.87948        -5.74034         5.76322
   C       18.40410        -6.30034         6.94739
   N       18.82355        -6.75027         7.91472
   C       16.47286        -5.74205         5.65403
   N       15.32979        -5.74191         5.56373
   C       21.19655        -5.48056         5.58525
   C       22.42637        -5.09541         5.03879
   S       22.23437        -4.33240         3.46180
   C       23.63731        -5.30647         5.72157
   C       24.90359        -4.88117         5.42081
   C       26.09377        -5.10489         6.22404
   C       26.23262        -5.98128         7.26784
   C       27.42927        -6.15625         7.99474
   N       28.37029        -6.34086         8.62563
   C       25.22928        -6.85278         7.74159
   N       24.46871        -7.59894         8.17014
   C       27.15225        -4.25853         5.68259
   C       26.65767        -3.60434         4.51736
   C       27.42507        -2.74205         3.78866
   C       28.74886        -2.48022         4.20667
   C       29.58591        -1.59294         3.50237
   C       30.86199        -1.34637         3.93163
   C       31.35633        -1.97777         5.08247
   C       30.56908        -2.84690         5.78828
   C       29.25015        -3.12319         5.37529
   C       28.43267        -4.01814         6.10445
   C       25.26252        -4.00388         4.29781
   O       24.54399        -3.65967         3.37403
   H       -1.26258         2.79726        -2.03915
   H       -1.83029         4.52414        -3.70128
   H       -0.04719         5.79093        -4.83372
   H        2.31797         5.34447        -4.31127
   H        4.00972         4.12416        -3.07600
   H        0.43433         1.51180        -0.77823
   H        4.93226        -0.69030         0.86397
   H        6.94820         0.58497        -2.17497
   H       12.93395        -0.97457        -2.45158
   H       17.10155        -0.61742        -4.21517
   H       18.21105        -2.00994        -4.10785
   H       18.58838        -0.51677        -3.22657
   H       16.07459        -4.47823         3.26188
   H       21.12100        -5.96462         6.54295
   H       23.51004        -5.85900         6.64520
   H       27.02547        -2.26184         2.90779
   H       29.19916        -1.10945         2.61722
   H       31.49654        -0.66325         3.38720
   H       32.36498        -1.77201         5.40789
   H       30.94601        -3.33589         6.67450
   H       28.84155        -4.48458         6.98651
*
