# ORCA input file
# SCF done       -204.676287370806          0.000580732507
! CAM-B3LYP def2-SVP def2/J RIJCOSX Grid4 TightSCF
%maxcore 5000
%tddft
    Mode sTDDFT
    Ethresh 5.0
    maxcore 5000
end

%pal
  nprocs 6
  end
* xyz 0 1
   C       -4.60024        -0.94611        -3.56479
   C       -4.50177        -0.78768        -4.92259
   C       -3.82505        -1.68562        -5.77610
   N       -3.29401        -2.37454        -6.52484
   C       -5.03411         0.28104        -5.67459
   N       -5.42739         1.11204        -6.36327
   C       -4.01475        -2.04286        -2.80211
   C       -4.26432        -1.82608        -1.42456
   C       -3.83410        -2.68784        -0.44495
   C       -3.12643        -3.82603        -0.84406
   C       -2.88591        -4.03973        -2.22312
   C       -3.31760        -3.16493        -3.21222
   S       -2.00131        -5.50947        -2.49672
   C       -1.96608        -5.81287        -0.77991
   C       -2.58430        -4.86329        -0.03759
  Br       -1.11809        -7.35366        -0.13048
   C       -5.03545        -0.58209        -1.25913
   O       -5.39754        -0.09652        -0.20669
   C       -5.27103        -0.06460        -2.62103
   C       -6.02771         1.02271        -2.95147
   C       -6.75431         1.92267        -2.14023
   C       -7.52250         2.93248        -2.69618
   C       -8.20626         3.71464        -1.75429
   C       -7.92759         3.28314        -0.42453
   S       -6.84003         1.92458        -0.38981
   C       -8.49634         3.89219         0.67157
   C       -9.37894         4.95160         0.44971
   C       -9.66228         5.37753        -0.88179
   C       -9.08683         4.78345        -1.97638
   S      -10.82076         6.68252        -0.89413
   C      -10.91425         6.65899         0.85909
   C      -10.09637         5.69725         1.40475
   C      -11.80650         7.55028         1.52914
   C      -11.90068         7.67978         2.93756
   C      -12.89886         8.51673         3.57113
   N      -12.91732         8.61400         4.90893
   C      -12.05552         7.94644         5.63262
   C      -11.08032         7.10633         5.00746
   N      -11.02925         7.00686         3.70365
   C      -10.14821         6.37955         5.78966
   N       -9.41441         5.79417         6.44614
   C      -12.09454         8.07996         7.04321
   N      -12.11185         8.16412         8.18538
   C      -13.85555         9.24906         2.82470
   C      -13.69653         9.18373         1.42633
   C      -12.69664         8.36004         0.79580
   N      -12.75314         8.45254        -0.53398
   S      -13.92535         9.46319        -0.94762
   N      -14.43366         9.83573         0.52528
   C      -14.93320         9.98838         3.40147
   C      -15.31354        10.05733         4.72094
   C      -16.45916        10.84636         4.94028
   C      -16.96512        11.40095         3.73141
   S      -15.99978        10.91935         2.36308
   C      -18.09027        12.19241         3.70389
   C      -18.74860        12.43883         4.91103
   C      -18.24308        11.87480         6.11612
   C      -17.11252        11.09577         6.15120
   S      -19.24483        12.28845         7.47771
   C      -20.33820        13.19334         6.43948
   C      -19.91549        13.20228         5.13690
   C      -21.47193        13.87681         6.96408
   C      -22.18846        13.58129         8.07583
   C      -22.22267        12.39858         8.91586
   C      -22.04344        11.10975         8.49121
   C      -22.18089         9.98311         9.32739
   N      -22.27000         9.04060         9.97583
   C      -21.80857        10.76815         7.14200
   N      -21.68110        10.45319         6.04581
   C      -22.76817        12.80272        10.20473
   C      -23.29316        14.11546        10.08425
   C      -23.03929        14.62264         8.72097
   O      -23.39132        15.67202         8.23703
   C      -23.92024        14.75397        11.12719
   C      -24.02328        14.07144        12.34380
   C      -23.48302        12.76688        12.45599
   C      -22.85671        12.11617        11.40036
   S      -23.71255        12.11468        14.04894
   C      -24.52515        13.57889        14.53605
   C      -24.61816        14.51107        13.55804
  Br      -25.17033        13.73879        16.28905
   H       -4.04003        -2.49073         0.59540
   H       -3.10951        -3.37544        -4.24770
   H       -2.65624        -4.89204         1.03429
   H       -6.12542         1.24581        -4.00732
   H       -7.58927         3.08789        -3.75912
   H       -8.27836         3.56083         1.67426
   H       -9.30705         5.11245        -2.97930
   H      -10.02224         5.52641         2.46208
   H      -14.78865         9.54880         5.50727
   H      -18.46631        12.60390         2.78106
   H      -16.74095        10.67574         7.07208
   H      -20.45484        13.70523         4.35398
   H      -21.75514        14.78975         6.44885
   H      -24.32005        15.74881        11.00896
   H      -22.45359        11.12509        11.52893
   H      -25.08636        15.46990        13.68577
*
