# ORCA input file
# SCF done       -226.609250674488          0.000840452705
! CAM-B3LYP def2-SVP def2/J RIJCOSX Grid4 TightSCF
%maxcore 5000
%tddft
    Mode sTDDFT
    Ethresh 5.0
    maxcore 5000
end

%pal
  nprocs 6
  end
* xyz 0 1
   C       -1.88214        -0.58703         5.39442
   C       -1.52731         0.08287         6.53604
   C       -0.55290        -0.37645         7.44675
   N        0.22689        -0.70264         8.22339
   C       -2.02562         1.34430         6.92871
   N       -2.34536         2.38288         7.29887
   C       -1.24995        -1.80201         4.89702
   C       -1.74463        -2.06407         3.59706
   C       -1.32464        -3.13526         2.84630
   C       -0.37244        -3.99193         3.40763
   C        0.11074        -3.72656         4.71138
   C       -0.31238        -2.64151         5.46914
   S        1.27638        -4.91250         5.21446
   C        1.10408        -5.73542         3.68682
   C        0.21873        -5.15486         2.84243
  Br        2.10882        -7.28277         3.35047
   C       -2.73529        -1.03477         3.22428
   O       -3.32629        -0.97869         2.16547
   C       -2.86655        -0.15982         4.41368
   C       -3.84382         0.76418         4.67108
   C       -4.80889         1.32234         3.80906
   C       -4.87167         1.38561         2.42491
   C       -5.97588         2.07761         1.93961
   C       -6.19255         2.29778         0.50677
   C       -6.09814         1.20942        -0.35891
   C       -6.26123         1.40568        -1.72226
   C       -6.52113         2.68552        -2.21959
   C       -6.59830         3.76730        -1.35793
   C       -6.42596         3.57035         0.01370
   O       -6.83517         5.04880        -1.74211
   C       -6.97784         5.32381        -3.11557
   O       -6.18542         0.42710        -2.65988
   C       -5.88835        -0.88508        -2.23972
   C       -6.80796         2.54006         2.96864
   S       -6.16065         2.16405         4.53467
   C       -8.06789         3.16465         2.89806
   C       -8.78673         3.61200         4.01568
   C      -10.04933         4.19323         3.67408
   N      -10.86815         4.67929         4.60287
   C      -10.47608         4.58758         5.85507
   C      -11.38543         5.14106         6.88752
   O      -12.40652         5.73627         6.60565
   C      -10.94899         4.93146         8.27587
   C       -9.79328         4.34475         8.60571
   C       -8.82230         3.82748         7.62401
   O       -7.78482         3.29683         7.95520
   C       -9.22453         3.98320         6.20175
   N       -8.40099         3.51495         5.28852
   C      -10.32441         4.15451         2.30193
   S       -9.00156         3.42789         1.45039
   C      -11.54145         4.60013         1.75576
   C      -12.08893         4.41449         0.49966
   C      -13.39798         4.89414         0.38639
   C      -14.21877         4.75449        -0.81204
   C      -15.56419         4.44189        -0.70828
   C      -16.34577         4.31161        -1.85928
   C      -15.76569         4.49633        -3.10385
   C      -14.40589         4.80099        -3.20844
   C      -13.63046         4.92728        -2.06803
   O      -13.94770         4.95180        -4.48097
   C      -12.58458         5.23957        -4.67597
   O      -17.64895         4.00239        -1.65214
   C      -18.49418         3.85799        -2.76890
   C      -13.85350         5.46944         1.57657
   S      -12.63517         5.42992         2.81601
   C      -15.08508         6.12764         1.81525
   C      -15.63641         6.38471         3.03215
   C      -15.32086         5.86873         4.35322
   C      -14.94650         4.58898         4.65984
   C      -14.76050         4.10863         5.97125
   N      -14.59599         3.65120         7.01109
   C      -14.77355         3.58713         3.68170
   N      -14.66172         2.73850         2.91665
   C      -15.75837         6.87048         5.31303
   C      -16.57864         7.81411         4.64340
   C      -16.61770         7.49184         3.20089
   O      -17.25050         8.04309         2.33075
   C      -17.17296         8.86213         5.30446
   C      -16.92930         8.98973         6.67648
   C      -16.08301         8.05652         7.32374
   C      -15.49169         6.98805         6.66230
   S      -15.89641         8.42690         9.01061
   C      -16.95017         9.80448         8.82957
   C      -17.41554         9.98312         7.57091
  Br      -17.33250        10.87959        10.31797
   H       -1.71738        -3.30647         1.85625
   H        0.08205        -2.48428         6.45898
   H       -0.00918        -5.52995         1.86145
   H       -3.93038         1.10718         5.69601
   H       -4.12150         0.96172         1.78489
   H       -5.90299         0.23382         0.05405
   H       -6.64164         2.78600        -3.28516
   H       -6.44464         4.42957         0.66438
   H       -7.13954         6.39829        -3.18533
   H       -7.83829         4.79899        -3.54283
   H       -6.07567         5.05631        -3.67383
   H       -5.84392        -1.48109        -3.14971
   H       -6.66956        -1.28228        -1.58438
   H       -4.92370        -0.93302        -1.72605
   H      -11.63221         5.29360         9.03200
   H       -9.50504         4.21580         9.64028
   H      -11.56611         3.89563        -0.28414
   H      -16.01939         4.25035         0.24936
   H      -16.32326         4.40705        -4.02093
   H      -12.58530         5.18317        -2.12406
   H      -12.30523         6.19471        -4.21972
   H      -12.44880         5.30328        -5.75440
   H      -11.94590         4.44456        -4.27740
   H      -19.47517         3.61379        -2.36498
   H      -18.15919         3.04698        -3.42296
   H      -18.56017         4.78659        -3.34423
   H      -15.59011         6.55480         0.95477
   H      -17.80115         9.56632         4.78178
   H      -14.82827         6.31012         7.17281
   H      -18.07366        10.78227         7.28225
*
