# ORCA input file
# SCF done       -213.047905421148          0.000911072614
! CAM-B3LYP def2-SVP def2/J RIJCOSX Grid4 TightSCF
%maxcore 5000
%tddft
    Mode sTDDFT
    Ethresh 5.0
    maxcore 5000
end

%pal
  nprocs 6
  end
* xyz 0 1
   C       -0.40304         1.28164         3.00102
   C       -0.15594         0.07752         3.61254
   C        1.12427        -0.50281         3.72880
   N        2.13440        -1.03428         3.85373
   C       -1.11970        -0.75428         4.21809
   N       -1.84047        -1.48725         4.73185
   C        0.61328         2.14125         2.39987
   C       -0.01635         3.30565         1.89491
   C        0.67417         4.31330         1.26765
   C        2.05874         4.16603         1.13113
   C        2.68107         3.00090         1.63879
   C        1.98033         1.98171         2.27302
   S        4.39672         3.02257         1.36596
   C        4.25680         4.57542         0.58473
   C        2.99125         5.05437         0.52923
  Br        5.79410         5.41579        -0.08388
   C       -1.46318         3.22310         2.15997
   O       -2.29899         4.05971         1.86731
   C       -1.68291         1.94097         2.83753
   C       -2.90347         1.43913         3.21994
   C       -4.18901         1.97957         3.10067
   C       -5.32498         1.26600         3.52820
   C       -6.49333         1.95223         3.32099
   C       -6.27187         3.21701         2.73698
   S       -4.61984         3.54770         2.43320
   C       -7.51552         3.84758         2.54814
   C       -8.53735         2.99516         2.99973
   C       -7.96728         1.70687         3.54378
   C       -8.45873         0.49718         2.74417
   C       -8.28906         1.53964         5.03141
   C       -9.79465         3.53180         2.82909
   C       -9.75420         4.80426         2.25292
   S       -8.11539         5.33440         1.92960
   C      -10.86028         5.62308         1.92184
   C      -10.67640         6.91786         1.37993
   C      -11.77924         7.76424         1.00766
   N      -11.53690         8.98141         0.51211
   C      -10.30281         9.39871         0.36257
   C       -9.20566         8.55323         0.72479
   N       -9.42510         7.35703         1.21562
   C       -7.87256         9.00454         0.56338
   N       -6.80903         9.40367         0.41742
   C      -10.06879        10.69685        -0.15418
   N       -9.84572        11.74174        -0.56662
   C      -13.12904         7.36025         1.13907
   C      -13.31981         6.07212         1.69809
   C      -12.21114         5.22541         2.08546
   N      -12.63494         4.06497         2.58470
   S      -14.24007         4.03149         2.57417
   N      -14.49103         5.48331         1.93628
   C      -14.18670         8.20216         0.71910
   C      -15.55403         7.91922         0.75897
   C      -16.31697         8.94952         0.25262
   C      -15.53932        10.03674        -0.17846
   S      -13.85425         9.78324         0.04081
   C      -16.39501        11.02887        -0.68875
   C      -17.72629        10.58796        -0.58834
   C      -17.78750         9.20986         0.02531
   C      -18.38163         8.20596        -0.96787
   C      -18.56783         9.20202         1.34224
   C      -18.62734        11.48009        -1.12628
   C      -18.00744        12.62086        -1.64281
   S      -16.26633        12.57242        -1.40785
   C      -18.57262        13.75545        -2.24857
   C      -19.81583        13.92915        -2.79225
   C      -20.85063        13.01497        -3.21042
   C      -20.68163        11.72688        -3.65726
   C      -21.73238        10.91083        -4.12053
   N      -22.55269        10.19391        -4.48329
   C      -19.43219        11.08979        -3.78232
   N      -18.44186        10.52965        -3.93719
   C      -22.08648        13.78419        -3.33838
   C      -21.77613        15.16278        -3.22821
   C      -20.33134        15.31370        -2.95998
   O      -19.70002        16.34017        -2.85321
   C      -22.72811        16.14515        -3.34848
   C      -24.05075        15.74807        -3.57471
   C      -24.35224        14.36865        -3.66816
   C      -23.38727        13.37445        -3.55708
   S      -26.04793        14.10150        -3.93576
   C      -26.32513        15.82324        -3.92331
   C      -25.20699        16.56149        -3.72757
  Br      -28.06445        16.48132        -4.16612
   H        0.16314         5.18678         0.89423
   H        2.50309         1.11465         2.64023
   H        2.72417         5.99490         0.08304
   H       -2.89977         0.45957         3.68251
   H       -5.24338         0.28567         3.96347
   H       -8.22461         0.62061         1.68930
   H       -9.53512         0.39168         2.85268
   H       -7.97799        -0.40863         3.10449
   H       -7.93002         2.39759         5.59513
   H       -7.81065         0.64350         5.41806
   H       -9.36347         1.45408         5.17241
   H      -10.72432         3.06249         3.09118
   H      -15.92420         6.98806         1.14540
   H      -17.86399         8.26859        -1.92196
   H      -19.43385         8.42304        -1.13399
   H      -18.28725         7.19539        -0.57911
   H      -18.14110         9.91798         2.04116
   H      -18.52931         8.21216         1.78951
   H      -19.60718         9.46568         1.16293
   H      -19.69512        11.35342        -1.12076
   H      -17.96344        14.65477        -2.23337
   H      -22.46243        17.18766        -3.27094
   H      -23.66516        12.33608        -3.63125
   H      -25.19573        17.63550        -3.69126
*
