# ORCA input file
# SCF done       -161.222663167765          0.000825477510
! CAM-B3LYP def2-SVP def2/J RIJCOSX Grid4 TightSCF
%maxcore 5000
%tddft
    Mode sTDDFT
    Ethresh 5.0
    maxcore 5000
end

%pal
  nprocs 6
  end
* xyz 0 1
   C       -2.32699        -0.60582        -4.46998
   N       -1.21482        -0.20447        -5.00705
   O       -0.42869         0.26184        -4.03111
   C       -1.05933         0.15539        -2.83858
   C       -0.31448         0.59847        -1.67488
   O       -0.70108         0.57426        -0.53323
   C       -2.31884        -0.40833        -3.05755
   C       -3.38016        -0.73509        -2.16419
   C       -3.49649        -0.47796        -0.81188
   C       -4.70052        -0.95768        -0.29679
   C       -5.50072        -1.59335        -1.26832
   S       -4.77989        -1.58459        -2.81073
   C       -6.68474        -2.06674        -0.65681
   C       -6.63569        -1.72576         0.71137
   C       -5.39541        -1.01051         0.97883
   C       -4.99664        -0.49100         2.17412
   C       -5.77975        -0.62222         3.34180
   N       -6.40709        -0.72452         4.29609
   C       -3.79311         0.22835         2.34461
   N       -2.83188         0.82835         2.51479
   C       -7.75599        -2.15015         1.40921
   C       -8.66021        -2.81461         0.58639
   S       -8.11168        -2.91098        -1.07881
   C       -9.90021        -3.37904         0.97515
   C      -10.73109        -4.03849         0.03830
   C      -11.99865        -4.63676         0.38049
   N      -12.68888        -5.28295        -0.57020
   C      -12.22399        -5.34376        -1.79308
   C      -10.98733        -4.71025        -2.14234
   N      -10.28826        -4.09294        -1.22277
   C      -10.49927        -4.74583        -3.47173
   N      -10.12107        -4.78558        -4.55184
   C      -12.94368        -6.06117        -2.78346
   N      -13.47487        -6.63788        -3.61739
   C      -12.50630        -4.57075         1.70315
   C      -11.66914        -3.92013         2.63821
   C      -10.39656        -3.33613         2.29694
   N       -9.81108        -2.78739         3.36228
   S      -10.74418        -2.97839         4.64824
   N      -11.94713        -3.76751         3.93366
   C      -13.75377        -5.11176         2.11352
   C      -14.73459        -5.71691         1.33467
   C      -15.82012        -6.13269         2.09194
   C      -15.66994        -5.84775         3.46499
   S      -14.20085        -5.05151         3.81442
   C      -16.81307        -6.33044         4.14317
   C      -17.68660        -6.92310         3.20957
   C      -17.09993        -6.79787         1.88512
   C      -17.63452        -7.18245         0.69241
   C      -18.90011        -7.79819         0.57330
   N      -19.92739        -8.28879         0.44284
   C      -16.96046        -6.95806        -0.52893
   N      -16.42031        -6.76137        -1.52060
   C      -18.83535        -7.45255         3.79803
   C      -18.84530        -7.26131         5.16562
   S      -17.41227        -6.41136         5.73542
   C      -19.82458        -7.64696         6.12643
   C      -20.99499        -8.40114         6.01075
   O      -21.57339        -8.47765         7.23172
   N      -20.83721        -7.81312         8.12871
   C      -19.80658        -7.31709         7.51364
   C      -21.66971        -9.10057         4.93316
   O      -21.30535        -9.15514         3.78547
   H       -3.10944        -1.01950        -5.07395
   H        0.68859         0.96944        -1.94788
   H       -2.73123         0.02662        -0.24883
   H       -7.94093        -2.00633         2.45774
   H      -14.62937        -5.83632         0.27272
   H      -19.62834        -7.95978         3.27729
   H      -19.07650        -6.74037         8.04517
   H      -22.58486        -9.60821         5.28411
*
