# ORCA input file
# SCF done       -206.375968348098          0.000788124447
! CAM-B3LYP def2-SVP def2/J RIJCOSX Grid4 TightSCF
%maxcore 5000
%tddft
    Mode sTDDFT
    Ethresh 5.0
    maxcore 5000
end

%pal
  nprocs 6
  end
* xyz 0 1
   C        1.26795        -0.53886        -3.73865
   C        1.18370        -0.68856        -5.09684
   C        1.89533         0.10172        -6.02448
   N        2.45401         0.70727        -6.82312
   C        0.34936        -1.62253        -5.74845
   N       -0.32034        -2.34445        -6.33821
   C        2.03714         0.48243        -3.03432
   C        1.73846         0.40480        -1.66285
   C        2.31619         1.24894        -0.73602
   C        3.21304         2.18848        -1.22200
   C        3.52992         2.28635        -2.56970
   C        2.94214         1.43146        -3.48934
   F        3.80050         3.03287        -0.36089
   C        0.76588        -0.68083        -1.41756
   O        0.33245        -1.02164        -0.33971
   C        0.53614        -1.30525        -2.74653
   C       -0.04449        -2.52503        -2.95560
   C       -0.83605        -3.24451        -2.03409
   C       -1.63060        -2.78011        -0.99476
   C       -2.20912        -3.81813        -0.27918
   C       -1.86079        -5.09747        -0.77173
   S       -0.87103        -5.00647        -2.15266
   C       -2.40028        -6.07874         0.09243
   C       -3.09179        -5.41637         1.13250
   C       -3.02706        -3.98061         0.90857
   C       -3.61511        -3.00215         1.65364
   C       -4.38313        -3.30138         2.79934
   N       -5.00383        -3.55039         3.73059
   C       -3.52003        -1.63329         1.32052
   N       -3.47044        -0.52021         1.05236
   C       -3.58528        -6.28782         2.09058
   C       -3.27318        -7.60852         1.78638
   S       -2.38758        -7.77978         0.28084
   C       -3.52537        -8.74223         2.57509
   C       -3.19774       -10.06322         2.24744
   C       -3.48401       -11.00138         3.29730
   N       -3.17163       -12.29227         3.15946
   C       -2.61915       -12.65384         2.02208
   C       -2.22337       -14.08220         1.89307
   O       -2.26618       -14.85536         2.82330
   C       -1.74652       -14.47568         0.55440
   C       -1.54959       -13.61083        -0.44577
   C       -1.79374       -12.16220        -0.33294
   O       -1.54351       -11.38633        -1.23010
   C       -2.37570       -11.72402         0.96185
   N       -2.65665       -10.44511         1.09131
   C       -4.03344       -10.38749         4.43220
   S       -4.19998        -8.67616         4.16970
   C       -4.34843       -10.98643         5.66571
   C       -4.38346       -12.34692         5.95630
   C       -4.67220       -12.57342         7.29615
   C       -4.83572       -11.38134         8.03442
   S       -4.68343        -9.98340         7.07027
   C       -5.05395       -11.71076         9.38693
   C       -5.03888       -13.11585         9.52080
   C       -4.82934       -13.70203         8.20585
   C       -4.82442       -15.02645         7.88727
   C       -4.96789       -16.02941         8.87125
   N       -5.07033       -16.84495         9.67005
   C       -4.71742       -15.49428         6.55821
   N       -4.67290       -15.89529         5.48598
   C       -5.21624       -13.52661        10.83648
   C       -5.39147       -12.45790        11.70653
   S       -5.29260       -10.91038        10.86786
   C       -5.50423       -12.54823        13.11194
   C       -5.86206       -11.59440        14.01459
   C       -6.52051       -10.31168        13.87746
   C       -7.50921       -10.00557        12.98088
   C       -8.19412        -8.77339        12.95731
   N       -8.76350        -7.77955        12.88720
   C       -8.00570       -10.93217        12.03988
   N       -8.45192       -11.67779        11.29005
   C       -6.17036        -9.52018        15.05427
   C       -5.55411       -10.36451        15.99722
   C       -5.42156       -11.72681        15.43216
   O       -4.99682       -12.71952        15.97097
   C       -5.14752        -9.90016        17.23189
   C       -5.36475        -8.55570        17.49716
   C       -5.95745        -7.69966        16.57944
   C       -6.37065        -8.17947        15.34615
   F       -4.98335        -8.05894        18.68353
   H        2.07876         1.18245         0.31368
   H        4.23902         3.03398        -2.88845
   H        3.20054         1.51172        -4.53232
   H        0.15852        -3.03546        -3.88968
   H       -1.78095        -1.73740        -0.79019
   H       -4.12845        -6.00857         2.97563
   H       -1.53694       -15.53024         0.43687
   H       -1.17643       -13.93727        -1.40714
   H       -4.18710       -13.09375         5.20778
   H       -5.23783       -14.54857        11.16964
   H       -5.16315       -13.48532        13.54227
   H       -4.68372       -10.54966        17.95687
   H       -6.09054        -6.66152        16.84012
   H       -6.82407        -7.50987        14.63329
*
