# ORCA input file
# SCF done       -159.823812612498          0.000547384917
! CAM-B3LYP def2-SVP def2/J RIJCOSX Grid4 TightSCF
%maxcore 5000
%tddft
    Mode sTDDFT
    Ethresh 5.0
    maxcore 5000
end

%pal
  nprocs 6
  end
* xyz 0 1
   C        0.16610        -1.98066         6.71855
   O        0.15992        -1.97825         5.49448
   C        0.73838        -0.93642         7.58502
   C        0.55410        -1.30367         8.93086
   C        1.00848        -0.46539         9.93423
   C        1.63927         0.72257         9.57691
   C        1.81922         1.07507         8.23791
   C        1.36452         0.23875         7.22616
  Br        2.68067         2.69328         7.78131
  Br        2.25670         1.86642        10.94849
   C       -0.13678        -2.59431         8.97694
   C       -0.47244        -3.26608        10.12247
   C       -0.19370        -2.79480        11.42411
   N        0.00532        -2.46574        12.50513
   C       -1.13350        -4.51184        10.18242
   N       -1.66581        -5.52013        10.31721
   C       -0.38038        -2.99878         7.60551
   C       -1.02958        -4.14123         7.19140
   C       -1.33260        -4.59663         5.90276
   C       -2.03956        -5.79852         5.71444
   C       -2.32049        -6.15724         4.41659
   C       -1.84679        -5.25533         3.45865
  Se       -0.94890        -3.80296         4.23208
   C       -2.03168        -5.38639         2.07334
   C       -2.72891        -6.38228         1.36993
   C       -2.72440        -6.13412        -0.04112
   N       -3.33002        -6.93264        -0.90714
   C       -3.95749        -7.97995        -0.42049
   C       -4.64109        -8.85075        -1.40463
   O       -4.61588        -8.60743        -2.59305
   C       -5.33865       -10.00500        -0.81858
   C       -5.35278       -10.26069         0.49516
   C       -4.67960        -9.43215         1.51446
   O       -4.70547        -9.70879         2.69385
   C       -3.96842        -8.23800         0.98585
   N       -3.36336        -7.45436         1.85355
   C       -2.04159        -4.97830        -0.43820
   S       -1.39521        -4.19545         0.96087
   C       -1.99313        -4.59194        -1.78492
   C       -1.34650        -3.50018        -2.35042
   C       -1.57305        -3.33223        -3.70711
   C       -2.37816        -4.29770        -4.29663
  Se       -2.95206        -5.59243        -3.05567
   C       -2.82051        -4.30218        -5.64242
   C       -3.14427        -3.20144        -6.37762
   C       -3.19389        -3.25591        -7.86140
   O       -3.17283        -4.24024        -8.55960
   C       -3.21097        -1.83710        -8.29043
   C       -3.29276        -1.00167        -7.16014
   C       -3.39684        -1.83618        -5.96582
   C       -3.89617        -1.43428        -4.75349
   C       -4.26341        -2.34625        -3.74390
   N       -4.62986        -3.07636        -2.93564
   C       -4.17303        -0.09223        -4.42292
   N       -4.38697         0.98961        -4.10597
   C       -3.29672         0.37385        -7.31597
   C       -3.22384         0.89645        -8.60228
   C       -3.15625         0.06134        -9.72023
   C       -3.14794        -1.31985        -9.56736
  Br       -3.07226         0.79908       -11.45764
  Br       -3.21083         2.77394        -8.81883
   H        0.88914        -0.70008        10.97937
   H        1.49570         0.49961         6.18760
   H       -1.38243        -4.80527         7.97266
   H       -2.34398        -6.39397         6.55974
   H       -2.86016        -7.04642         4.13864
   H       -5.84913       -10.64830        -1.52224
   H       -5.87647       -11.12070         0.89062
   H       -0.73325        -2.83680        -1.76286
   H       -1.12073        -2.53767        -4.27889
   H       -2.87974        -5.25830        -6.15483
   H       -3.34479         1.04515        -6.47339
   H       -3.09615        -1.97258       -10.42493
*
