# ORCA input file
# SCF done       -213.141821711963          0.000413000921
! CAM-B3LYP def2-SVP def2/J RIJCOSX Grid4 TightSCF
%maxcore 5000
%tddft
    Mode sTDDFT
    Ethresh 5.0
    maxcore 5000
end

%pal
  nprocs 6
  end
* xyz 0 1
   C       -5.91829        -8.23176        -2.63917
   C       -6.61909        -9.42717        -2.50017
   C       -8.08915        -9.44803        -2.76929
   C       -5.95668       -10.60329        -2.11279
   C       -6.71213       -11.88425        -1.96592
   C       -4.58768       -10.57240        -1.86855
   C       -3.90086        -9.38379        -2.01189
   C       -4.55564        -8.20039        -2.39634
   C       -3.57978        -7.11709        -2.46131
   C       -3.86670        -5.80368        -2.72229
   C       -5.16472        -5.31922        -2.99224
   N       -6.19265        -4.86085        -3.21762
   C       -2.93487        -4.74407        -2.73695
   N       -2.24270        -3.82793        -2.75751
   C       -2.27890        -7.69034        -2.15544
   C       -2.47224        -9.11154        -1.82237
   O       -1.61617        -9.90525        -1.47079
   C       -1.07425        -7.04658        -2.22794
   C        0.22304        -7.51337        -1.94609
   C        1.34949        -6.70257        -2.13369
   C        2.52299        -7.33720        -1.77614
   C        2.29584        -8.65061        -1.29384
   S        0.65118        -9.09921        -1.31101
   C        3.54213        -9.21199        -0.93604
   C        4.55630        -8.26093        -1.19048
   C        3.94920        -7.05631        -1.73131
   C        4.58674        -5.91339        -2.11456
   C        5.98680        -5.76596        -2.01604
   N        7.12355        -5.63828        -1.93708
   C        3.89197        -4.80280        -2.63935
   N        3.33499        -3.89885        -3.07171
   C        5.82067        -8.71830        -0.85440
   C        5.78542       -10.01055        -0.33877
   S        4.15625       -10.66665        -0.27988
   C        6.88968       -10.76681         0.12755
   C        6.71380       -12.06301         0.66438
   C        7.81082       -12.83658         1.18524
   N        7.57861       -14.05037         1.69525
   C        6.35955       -14.53321         1.71374
   C        5.26954       -13.76718         1.18767
   N        5.47798       -12.57243         0.68896
   C        3.95391       -14.29299         1.20149
   N        2.90251       -14.74606         1.22829
   C        6.13348       -15.81915         2.26379
   N        5.92062       -16.85397         2.70582
   C        9.14108       -12.35848         1.18969
   C        9.32562       -11.07144         0.63037
   C        8.22351       -10.29235         0.11118
   N        8.63944        -9.11575        -0.35849
   S       10.22612        -8.99351        -0.17565
   N       10.48203       -10.41852         0.51064
   C       10.19411       -13.13336         1.73636
   C       11.53623       -12.77517         1.82025
   C       12.29644       -13.75730         2.43524
   C       11.53182       -14.88106         2.82215
   S        9.87681       -14.71831         2.42467
   C       12.39545       -15.81280         3.44165
   C       13.70291       -15.27894         3.45291
   C       13.68350       -13.97700         2.81055
   C       14.75057       -13.15648         2.58987
   C       16.05116       -13.51845         3.00009
   N       17.10119       -13.82400         3.34521
   C       14.62212       -11.90629         1.94888
   N       14.52141       -10.88593         1.43591
   C       14.63089       -16.13100         4.03401
   C       14.05496       -17.31932         4.46217
   S       12.32240       -17.35309         4.16272
   C       14.66641       -18.40909         5.12419
   C       15.98562       -18.72976         5.19039
   C       16.44969       -19.63979         6.28434
   O       15.74762       -20.33117         6.98468
   C       17.90708       -19.45048         6.34211
   C       18.31773       -18.62270         5.28114
   C       19.65164       -18.27556         5.16130
   C       20.57463       -18.75895         6.08456
   C       20.16205       -19.59939         7.13185
   C       18.81888       -19.93949         7.25612
   C       21.15744       -20.12367         8.11588
   C       22.01291       -18.37530         5.95150
   C       17.15829       -18.29231         4.45943
   C       17.21027       -17.89190         3.15018
   C       16.08355       -17.79121         2.31121
   N       15.19658       -17.71679         1.58574
   C       18.41211       -17.62524         2.46034
   N       19.35914       -17.40396         1.85164
   H       -6.45130        -7.34438        -2.94024
   H       -8.44268        -8.46325        -3.06147
   H       -8.63550        -9.76475        -1.88149
   H       -8.32192       -10.15319        -3.56648
   H       -7.50823       -11.77805        -1.22993
   H       -6.05167       -12.68721        -1.65079
   H       -7.17521       -12.16512        -2.91141
   H       -4.05675       -11.46397        -1.57014
   H       -1.08598        -6.01567        -2.56148
   H        1.27598        -5.69882        -2.51384
   H        6.74031        -8.17265        -0.95870
   H       11.89941       -11.83679         1.44316
   H       15.66835       -15.89468         4.18503
   H       14.01111       -19.04020         5.71698
   H       19.98534       -17.62199         4.37077
   H       18.48187       -20.58042         8.05699
   H       21.64797       -19.30230         8.63741
   H       21.93125       -20.69917         7.60924
   H       20.67409       -20.76179         8.85039
   H       22.16054       -17.72281         5.09568
   H       22.63384       -19.26135         5.82415
   H       22.35627       -17.85981         6.84783
*
