# ORCA input file
# SCF done       -231.323740362399          0.000754719266
! CAM-B3LYP def2-SVP def2/J RIJCOSX Grid4 TightSCF
%maxcore 5000
%tddft
    Mode sTDDFT
    Ethresh 5.0
    maxcore 5000
end

%pal
  nprocs 6
  end
* xyz 0 1
   C       -8.36912        -1.71164       -10.22502
   C       -9.07975        -2.11963       -11.31907
   F       -9.49759        -1.22421       -12.22227
   C       -9.38255        -3.48293       -11.51086
   F      -10.08201        -3.85317       -12.59098
   C       -8.96922        -4.42004       -10.60567
   C       -8.23614        -4.03056        -9.46801
   C       -7.93005        -2.65248        -9.27203
   C       -7.19884        -2.23675        -8.13516
   C       -6.78869        -3.16997        -7.21986
   C       -7.10103        -4.54316        -7.42505
   C       -7.80116        -4.97664        -8.51385
   C       -6.56578        -5.33021        -6.30393
   O       -6.63736        -6.54002        -6.17139
   C       -5.94484        -4.37035        -5.38430
   C       -6.04192        -3.04435        -5.96943
   C       -5.51519        -1.87871        -5.47942
   C       -4.76017        -1.75005        -4.29404
   N       -4.13253        -1.56444        -3.35054
   C       -5.64293        -0.62632        -6.11804
   N       -5.71299         0.41964        -6.58526
   C       -5.42701        -4.67460        -4.15134
   C       -5.30705        -5.91197        -3.49857
   C       -4.81776        -6.00834        -2.18894
   C       -4.78907        -7.31100        -1.73000
   C       -5.24391        -8.22970        -2.70606
   S       -5.72578        -7.49225        -4.16061
   C       -5.19146        -9.52836        -2.14128
   C       -4.71478        -9.43532        -0.82087
   C       -4.43921        -8.03994        -0.51948
   C       -3.96186        -7.52986         0.65124
   C       -3.66399        -8.35525         1.75641
   N       -3.42337        -9.02972         2.65181
   C       -3.73926        -6.14854         0.83740
   N       -3.55911        -5.02796         0.99630
   C       -4.65578       -10.67229        -0.18309
   C       -5.07385       -11.70137        -1.01107
   S       -5.54541       -11.13198        -2.60384
   C       -5.17078       -13.07300        -0.64727
   C       -5.45703       -14.17090        -1.44785
   C       -5.63656       -14.07159        -2.83651
   N       -5.76258       -13.96994        -3.97188
   C       -5.51014       -15.38455        -0.70780
   C       -5.25409       -15.16480         0.64091
   S       -4.94363       -13.51889         1.03230
   S       -5.31497       -16.57623         1.64528
   C       -5.69972       -17.49605         0.22723
   C       -5.76925       -16.76519        -0.95435
   C       -6.09417       -17.60017        -2.05881
   C       -6.32709       -17.15931        -3.37270
   N       -6.55688       -16.82862        -4.44582
   C       -6.26083       -18.92601        -1.68619
   S       -6.03075       -19.17211         0.02953
   C       -6.58876       -20.02475        -2.53421
   C       -6.32045       -20.15893        -3.88302
   C       -6.81443       -21.36104        -4.39044
   C       -7.47539       -22.13589        -3.42269
   S       -7.45665       -21.40485        -1.88129
   C       -7.98957       -23.29856        -4.04864
   C       -7.63340       -23.26996        -5.41063
   C       -6.86518       -22.06111        -5.66529
   C       -6.28702       -21.68208        -6.83904
   C       -6.39430       -22.46148        -8.01172
   N       -6.47277       -23.09614        -8.96272
   C       -5.50320       -20.51252        -6.95483
   N       -4.83787       -19.58477        -7.05181
   C       -8.10402       -24.37453        -6.11280
   C       -8.86308       -25.21845        -5.31732
   S       -8.92234       -24.66293        -3.64537
   C       -9.47124       -26.42423        -5.74066
   C      -10.50801       -27.11108        -5.19058
   C      -10.69101       -28.55239        -5.52592
   O      -10.14333       -29.16252        -6.41289
   C      -11.62709       -29.06872        -4.50678
   C      -12.04274       -30.35192        -4.29614
   C      -12.94016       -30.61809        -3.23779
   C      -13.38321       -29.54617        -2.40901
   C      -14.27355       -29.82024        -1.35140
   C      -14.70781       -31.09695        -1.13010
   C      -14.27137       -32.15592        -1.95203
   C      -13.40583       -31.92297        -2.98382
   F      -14.71311       -33.39683        -1.71126
   F      -15.55510       -31.35501        -0.12627
   C      -12.94048       -28.22645        -2.65454
   C      -12.08206       -27.99046        -3.69459
   C      -11.51410       -26.74951        -4.21381
   C      -12.04815       -25.50157        -4.02648
   C      -11.66730       -24.37288        -4.78114
   N      -11.40994       -23.44487        -5.40598
   C      -13.09870       -25.22587        -3.12782
   N      -13.93627       -24.94919        -2.39378
   H       -8.14592        -0.66429       -10.09417
   H       -9.20860        -5.45954       -10.76641
   H       -6.98754        -1.18652        -8.01720
   H       -8.02261        -6.02521        -8.64230
   H       -5.06576        -3.84660        -3.55312
   H       -4.51150        -5.14362        -1.62693
   H       -4.32779       -10.83334         0.82853
   H       -5.78756       -19.42163        -4.45439
   H       -7.95090       -24.55375        -7.16165
   H       -9.00216       -26.90449        -6.59500
   H      -11.69426       -31.15279        -4.93024
   H      -14.62114       -29.02071        -0.71599
   H      -13.08151       -32.74408        -3.60370
   H      -13.28525       -27.43419        -2.00919
*
