# ORCA input file
# SCF done       -180.187177540105          0.000422154948
! CAM-B3LYP def2-SVP def2/J RIJCOSX Grid4 TightSCF
%maxcore 5000
%tddft
    Mode sTDDFT
    Ethresh 5.0
    maxcore 5000
end

%pal
  nprocs 6
  end
* xyz 0 1
   C       -0.51243         2.92035        -3.55213
   C        0.26267         4.04301        -3.67506
   C        0.43311         4.75688        -4.87622
   N        0.56420         5.40541        -5.81458
   C        0.99529         4.58941        -2.60015
   N        1.64810         5.01522        -1.75693
   C       -1.03097         2.11596        -4.64870
   C       -1.32060         0.80906        -4.15382
   C       -1.78126        -0.17958        -4.97512
   C       -1.98595         0.10080        -6.34513
   C       -1.70978         1.40820        -6.84174
   C       -1.22567         2.41093        -5.97135
   C       -1.92382         1.67456        -8.20953
   C       -2.38647         0.69812        -9.04888
   C       -2.65743        -0.58857        -8.55957
   C       -2.46064        -0.88098        -7.23715
   C       -1.05690         0.76119        -2.70355
   O       -1.13188        -0.18632        -1.95760
   C       -0.74142         2.17101        -2.32823
   C       -0.85333         2.58798        -1.04298
   C       -0.97500         3.93781        -0.60472
   C       -0.53509         4.48042         0.57940
   C       -0.73164         5.86673         0.67285
   S       -0.09342         6.81920         1.98776
   C        1.41738         5.86172         2.36314
   C       -1.38476         6.39410        -0.44530
   S       -1.72321         5.14887        -1.60451
   C       -1.68767         7.73270        -0.80346
   C       -1.84696         8.78513         0.12490
   C       -2.05727        10.14341        -0.30555
   N       -2.12361        11.11707         0.61086
   C       -2.07896        10.82869         1.88504
   C       -1.99491         9.46263         2.31156
   N       -1.86011         8.49701         1.43145
   C       -2.04024         9.13875         3.68890
   N       -2.08091         8.91778         4.81241
   C       -2.10736        11.87665         2.84066
   N       -2.11714        12.68320         3.65336
   C       -2.17627        10.51121        -1.66560
   C       -2.05173         9.45242        -2.59453
   C       -1.83027         8.09373        -2.16332
   N       -1.74810         7.25403        -3.19543
   S       -1.91618         8.07656        -4.56357
   N       -2.11832         9.53283        -3.92482
   C       -2.41174        11.86357        -2.03419
   C       -2.46569        12.38029        -3.32424
   C       -2.73486        13.73596        -3.34254
   S       -2.84968        14.65812        -4.84826
   C       -4.63061        15.05178        -4.85228
   C       -2.86346        14.30679        -2.06158
   S       -2.70363        13.08005        -0.83248
   C       -3.01001        15.68759        -1.85743
   C       -3.07697        16.39910        -0.68837
   C       -3.16920        17.84311        -0.58167
   C       -3.48567        18.72479        -1.58398
   C       -3.55892        20.12242        -1.41024
   N       -3.62893        21.26626        -1.33914
   C       -3.84585        18.36809        -2.89945
   N       -4.19258        18.15349        -3.97362
   C       -2.94676        18.19652         0.81656
   C       -2.83370        16.99476         1.57339
   C       -2.95637        15.84222         0.67076
   O       -2.95638        14.66788         0.98997
   C       -2.63509        17.00054         2.92360
   C       -2.53289        18.24086         3.59345
   C       -2.63854        19.44916         2.84519
   C       -2.84762        19.40818         1.44669
   C       -2.53218        20.67941         3.52469
   C       -2.33214        20.71685         4.87810
   C       -2.22842        19.52688         5.61342
   C       -2.32673        18.31487         4.98479
   H       -1.98718        -1.16539        -4.58542
   H       -1.03032         3.39562        -6.36716
   H       -1.71075         2.66583        -8.58188
   H       -2.54589         0.91160       -10.09513
   H       -3.02301        -1.34673        -9.23567
   H       -2.66737        -1.87001        -6.85540
   H       -0.90722         1.81447        -0.28399
   H       -0.04408         3.89298         1.33291
   H        2.05719         6.53813         2.92076
   H        1.90077         5.56257         1.43921
   H        1.17568         5.00305         2.98128
   H       -2.31773        11.78439        -4.20570
   H       -4.76469        15.84212        -5.58270
   H       -4.94198        15.39954        -3.87386
   H       -5.18574        14.16421        -5.14220
   H       -3.01714        16.26061        -2.77890
   H       -2.55481        16.07171         3.46891
   H       -2.91793        20.34072         0.90941
   H       -2.61361        21.59330         2.95450
   H       -2.25278        21.66477         5.38908
   H       -2.07005        19.57518         6.68041
   H       -2.24759        17.39446         5.54424
*
