# ORCA input file
# SCF done       -207.030159839714          0.000661118680
! CAM-B3LYP def2-SVP def2/J RIJCOSX Grid4 TightSCF
%maxcore 5000
%tddft
    Mode sTDDFT
    Ethresh 5.0
    maxcore 5000
end

%pal
  nprocs 6
  end
* xyz 0 1
   C       -5.79493         0.35623        -0.87845
   O       -5.26287        -0.34501        -0.04689
   C       -5.69468         1.82936        -0.95461
   C       -6.42105         2.30224        -2.06004
   C       -6.44845         3.66469        -2.32568
   C       -5.75797         4.52299        -1.48406
   C       -5.05150         4.03210        -0.39281
   C       -5.00541         2.67389        -0.10926
  Br       -4.12610         5.24929         0.73226
   C       -7.04018         1.16480        -2.73443
   C       -7.91698         1.25562        -3.78362
   C       -8.29222         2.47149        -4.39554
   N       -8.63340         3.42109        -4.94212
   C       -8.60021         0.17925        -4.38971
   N       -9.21015        -0.63296        -4.92574
   C       -6.61762        -0.04462        -2.04478
   C       -6.85749        -1.31056        -2.50840
   C       -6.59415        -2.56996        -1.93712
   C       -6.19258        -2.96195        -0.66359
   C       -6.10791        -4.33987        -0.54359
   C       -6.44103        -5.02720        -1.73736
   S       -6.87773        -3.96698        -2.98988
   C       -6.30681        -6.41551        -1.51711
   C       -5.89122        -6.61245        -0.18156
   C       -5.76612        -5.32000         0.47432
   C       -5.42693        -5.09123         1.77448
   C       -5.12092        -6.14636         2.66177
   N       -4.87049        -6.99699         3.38866
   C       -5.37861        -3.79927         2.34340
   N       -5.35085        -2.76610         2.83843
   C       -5.73576        -7.95199         0.13925
   C       -6.03040        -8.78389        -0.93664
   S       -6.50334        -7.88707        -2.36728
   C       -5.99516       -10.20375        -0.93914
   C       -6.34441       -10.95332        -2.08404
   C       -6.36094       -12.38592        -2.09163
   N       -6.71683       -13.03520        -3.21786
   C       -7.03236       -12.36083        -4.27575
   C       -7.01233       -10.94031        -4.26952
   N       -6.68089       -10.28441        -3.20494
   F       -7.33272       -10.24653        -5.35462
   F       -7.37574       -13.03586        -5.36583
   C       -6.02315       -13.15568        -0.95651
   C       -5.64143       -12.41276         0.18660
   C       -5.62891       -10.96726         0.19540
   N       -5.24248       -10.49246         1.38083
   S       -4.92879       -11.70930         2.37221
   N       -5.26488       -12.90863         1.36667
   C       -6.08544       -14.57417        -0.97092
   C       -5.77629       -15.42631         0.08460
   C       -5.98010       -16.75689        -0.24577
   C       -6.44753       -16.92838        -1.56838
   S       -6.62281       -15.44359        -2.39693
   C       -6.63947       -18.31127        -1.79415
   C       -6.29915       -19.01214        -0.61494
   C       -5.85787       -18.05883         0.38744
   C       -5.39908       -18.34248         1.64025
   C       -5.31693       -19.67271         2.10380
   N       -5.26117       -20.76092         2.46138
   C       -4.98484       -17.33564         2.53770
   N       -4.65299       -16.52070         3.27239
   C       -6.45197       -20.38406        -0.73589
   C       -6.89899       -20.75383        -1.99874
   S       -7.15910       -19.35397        -3.03419
   C       -7.20708       -22.04271        -2.48176
   C       -6.84604       -23.25357        -1.97047
   C       -7.63920       -24.45542        -2.35585
   O       -8.43901       -24.53598        -3.25672
   C       -7.27346       -25.48899        -1.36297
   C       -6.24187       -25.00312        -0.53834
   C       -5.85530       -23.67115        -0.99995
   C       -4.64651       -23.07763        -0.74784
   C       -3.66524       -23.62561         0.10610
   N       -2.83436       -24.03183         0.78443
   C       -4.20084       -21.90230        -1.38416
   N       -3.79091       -20.96085        -1.89746
   C       -5.76343       -25.78565         0.50180
   C       -6.31275       -27.04411         0.69401
   C       -7.31768       -27.51360        -0.14291
   C       -7.81895       -26.74363        -1.18460
  Br       -8.03015       -29.24834         0.15297
   H       -6.98565         4.06926        -3.16732
   H       -5.76818         5.58466        -1.67736
   H       -4.45863         2.28286         0.73475
   H       -7.31850        -1.37936        -3.48695
   H       -5.97084        -2.25647         0.11648
   H       -5.42905        -8.34224         1.09191
   H       -5.42812       -15.05746         1.03168
   H       -6.29795       -21.08852         0.06081
   H       -7.88277       -22.08972        -3.33042
   H       -4.99180       -25.43231         1.16626
   H       -5.95815       -27.66632         1.50126
   H       -8.60361       -27.10313        -1.83199
*
