# ORCA input file
# SCF done       -234.207170557534          0.000846747193
! CAM-B3LYP def2-SVP def2/J RIJCOSX Grid4 TightSCF
%maxcore 5000
%tddft
    Mode sTDDFT
    Ethresh 5.0
    maxcore 5000
end

%pal
  nprocs 6
  end
* xyz 0 1
   C       -3.33696        -0.69558        -2.52749
   O       -3.46885        -1.77650        -3.07063
   C       -3.14150         0.60361        -3.19770
   C       -2.99157         1.61169        -2.22821
   C       -2.80838         2.92600        -2.63452
   C       -2.77698         3.20755        -3.99193
   C       -2.92281         2.19430        -4.93142
   C       -3.10784         0.87174        -4.55045
  Br       -2.87339         2.63021        -6.77822
   C       -3.07097         1.00493        -0.90113
   C       -2.85935         1.65808         0.28280
   C       -2.56876         3.03639         0.38251
   N       -2.33350         4.14990         0.52816
   C       -2.86473         1.05822         1.56113
   N       -2.83591         0.63978         2.62959
   C       -3.35462        -0.40890        -1.08747
   C       -3.68554        -1.30086        -0.10232
   C       -3.99236        -2.67033        -0.18350
   C       -4.42362        -3.39366         0.93529
   C       -4.67608        -4.71958         0.63963
   C       -4.40835        -5.02692        -0.71666
   S       -3.88989        -3.68347        -1.62195
   C       -4.70657        -6.39598        -0.93209
   C       -5.16825        -6.94624         0.28489
   C       -5.15064        -5.91787         1.31292
   C       -5.49999        -6.05506         2.62330
   C       -5.92309        -7.29334         3.15259
   N       -6.25492        -8.30554         3.57597
   C       -5.45316        -4.97576         3.53141
   N       -5.42478        -4.10453         4.27564
   C       -5.52053        -8.27773         0.15705
   C       -5.31081        -8.76040        -1.13647
   S       -4.64801        -7.52807        -2.20406
   C       -5.65645       -10.07477        -1.52935
   C       -5.41698       -10.80767        -2.69183
   C       -4.68445       -10.29558        -3.82625
   O       -4.27288        -9.14718        -3.91961
   C       -4.47308       -11.27567        -4.90534
   C       -5.01346       -12.58719        -4.86201
   C       -4.70014       -13.30711        -5.99194
   S       -3.75053       -12.41387        -7.10909
   C       -3.76717       -11.05122        -6.06463
   C       -3.04584        -9.80269        -6.47177
   F       -3.86511        -8.76114        -6.63399
   F       -2.10077        -9.44702        -5.59714
   F       -2.42289        -9.98174        -7.65009
   C       -5.08891       -14.71668        -6.31843
   F       -4.60547       -15.60162        -5.44231
   F       -6.41212       -14.88581        -6.38102
   F       -4.60437       -15.07244        -7.52145
   C       -5.80257       -13.08206        -3.72159
   O       -6.25269       -14.22061        -3.70573
   C       -5.96611       -12.12940        -2.65025
   C       -6.65980       -12.40140        -1.46962
   S       -6.57336       -11.03029        -0.39227
   C       -7.41089       -13.51802        -1.03609
   C       -8.11169       -13.53285         0.17256
   C       -8.81589       -14.70763         0.35971
   C       -8.64581       -15.60956        -0.71480
   S       -7.62962       -15.01079        -1.94433
   C       -9.42375       -16.76371        -0.44270
   C      -10.07566       -16.59014         0.79594
   C       -9.72652       -15.28808         1.33407
   C      -10.20840       -14.71802         2.47519
   C      -11.13099       -15.39770         3.29848
   N      -11.88199       -15.96840         3.95043
   C       -9.82807       -13.42149         2.88183
   N       -9.51365       -12.36678         3.20153
   C      -10.90524       -17.65349         1.12559
   C      -10.90502       -18.63783         0.14769
   S       -9.81755       -18.24535        -1.17801
   C      -11.61770       -19.85825         0.12281
   C      -12.72700       -20.21140         0.82736
   C      -13.06060       -21.66046         0.95135
   O      -12.58511       -22.56744         0.31261
   C      -14.04501       -21.73388         2.05179
   C      -14.38377       -20.43239         2.46662
   C      -13.69332       -19.46794         1.61254
   C      -14.09319       -18.17225         1.42144
   C      -15.14645       -17.56127         2.13668
   N      -15.99530       -17.01887         2.68495
   C      -13.57473       -17.32076         0.42571
   N      -13.20614       -16.59976        -0.38802
   C      -15.26444       -20.25324         3.52326
   C      -15.80392       -21.37325         4.13671
   C      -15.47327       -22.65001         3.69837
   C      -14.58432       -22.85374         2.65087
  Br      -16.25073       -24.15221         4.55955
   H       -2.69629         3.72923        -1.92529
   H       -2.63885         4.22499        -4.32400
   H       -3.22344         0.08004        -5.27429
   H       -3.75725        -0.91236         0.90677
   H       -4.54302        -2.93826         1.90255
   H       -5.91029        -8.89175         0.94999
   H       -8.10083       -12.70615         0.86125
   H      -11.45614       -17.73879         2.04443
   H      -11.20035       -20.64680        -0.49622
   H      -15.52396       -19.27080         3.88261
   H      -16.48809       -21.25468         4.96276
   H      -14.32034       -23.84351         2.31217
*
