# ORCA input file
# SCF done       -255.436971584117          0.000798115518
! CAM-B3LYP def2-SVP def2/J RIJCOSX Grid4 TightSCF
%maxcore 5000
%tddft
    Mode sTDDFT
    Ethresh 5.0
    maxcore 5000
end

%pal
  nprocs 6
  end
* xyz 0 1
   C       -2.09185         3.53169         1.58764
   C       -2.18716         3.24089         2.94181
   C       -1.54007         4.01429         3.89021
   C       -0.78988         5.12247         3.51222
   C       -0.70362         5.43123         2.17405
   C       -1.33965         4.63005         1.21890
   N       -1.08443         5.12304        -0.05173
   C       -1.54601         4.52736        -1.27737
   C       -0.30979         6.24887        -0.00711
   O        0.05889         6.87677        -0.97161
   C       -0.05432         6.57972         1.46429
   C       -0.74880         7.92041         1.80373
   C       -0.49456         8.27177         3.26889
   O        0.56517         8.51462         3.79327
   N       -1.69961         8.22847         3.92037
   C       -1.84545         8.45166         5.33307
   C       -2.73539         7.90971         3.05807
   C       -4.07014         7.72023         3.34128
   C       -4.92538         7.34415         2.29411
   C       -4.42314         7.24965         0.99043
   C       -3.08509         7.47368         0.71293
   C       -2.23537         7.77214         1.75541
   C       -6.30598         7.04751         2.59231
   C       -7.09125         6.24296         1.84239
   C       -8.44822         5.96435         2.15844
   N       -9.09826         6.57780         3.13808
   C      -10.35888         6.10774         3.09416
   C      -10.53064         5.12440         2.01178
   C      -11.91518         4.63482         1.97700
   O      -12.41843         3.84072         1.20770
   C      -12.54195         5.35627         3.09890
   C      -11.55987         6.24396         3.75038
   N      -12.12675         6.90475         4.78898
   C      -13.37053         6.48806         4.82105
   C      -13.69627         5.51906         3.79769
   C       -9.30108         5.00096         1.41639
   C       -8.84374         4.15259         0.36970
   C       -9.64393         3.33509        -0.34858
   C       -9.17519         2.45927        -1.39352
   C       -7.87659         2.00062        -1.43331
   C       -7.44202         1.16703        -2.48272
   C       -6.21276         0.57439        -2.75188
   C       -4.95139         0.55694        -1.95254
   C       -4.50560         1.93425        -1.40696
   N       -4.52915         3.03423        -2.34772
   C       -5.08498        -0.43856        -0.78157
   N       -5.22845        -1.78715        -1.29983
   C       -6.37460        -0.17664        -3.97500
   C       -5.52796        -0.99986        -4.62182
   C       -5.95164        -1.73702        -5.84787
   C       -7.31447        -1.38476        -6.34813
   C       -8.16044        -0.59025        -5.66551
   C       -7.75025         0.01304        -4.45337
   C       -8.39299         0.81523        -3.53225
   C       -9.73115         1.26823        -3.44568
   C      -10.10703         2.05102        -2.40399
   C       -4.88004        -1.60837        -6.89378
   C       -4.83144        -0.64053        -7.81958
   C       -3.79076        -0.62934        -8.80384
   N       -2.94639        -1.64374        -8.91058
   C       -2.14869        -1.35311        -9.95753
   C       -2.51705        -0.06482       -10.56766
   C       -1.63481         0.22968       -11.70480
   O       -1.64607         1.18980       -12.44826
   C       -0.72888        -0.93415       -11.72520
   C       -1.08072        -1.87519       -10.64370
   N       -0.24568        -2.94463       -10.64895
   C        0.58247        -2.72544       -11.64081
   C        0.34087        -1.48697       -12.35253
   C       -3.55992         0.42423        -9.82065
   C       -4.27767         1.65372        -9.92055
   C       -4.06581         2.54219       -10.91182
   C       -4.70658         3.84074       -10.96498
   C       -3.89222         4.96006       -11.19776
   C       -4.35920         6.24966       -11.06364
   C       -5.67893         6.48494       -10.68931
   C       -6.51348         5.40430       -10.53020
   C       -6.05331         4.09243       -10.70027
   N       -7.13158         3.21673       -10.62731
   C       -7.14874         1.82813       -11.00027
   C       -8.29514         3.88058       -10.34796
   O       -9.38057         3.35481       -10.24587
   C       -7.95895         5.35571       -10.15692
   C       -8.18320         5.71423        -8.66872
   C       -7.68766         4.55675        -7.79718
   O       -6.56609         4.09662        -7.74900
   N       -8.74876         4.08908        -7.08481
   C       -8.67731         2.95396        -6.20926
   C       -9.91153         4.79431        -7.37093
   C      -11.17797         4.61547        -6.85988
   C      -12.20454         5.45782        -7.30290
   C      -11.91490         6.45736        -8.23307
   C      -10.63583         6.63134        -8.73830
   C       -9.63096         5.79581        -8.30399
   C      -13.54404         5.25446        -6.76212
   C      -14.66635         5.82426        -7.18389
   H       -2.59334         2.92315         0.85244
   H       -2.77246         2.39037         3.25819
   H       -1.61912         3.75582         4.93509
   H       -0.28029         5.72120         4.25169
   H       -2.63563         4.45766        -1.29532
   H       -1.12109         3.52881        -1.39944
   H       -1.20655         5.16199        -2.09514
   H        1.01448         6.68076         1.66850
   H       -0.35455         8.69150         1.13686
   H       -0.85812         8.68337         5.73115
   H       -2.23617         7.55729         5.82320
   H       -2.51849         9.28986         5.52214
   H       -4.45520         7.81584         4.34420
   H       -5.09382         7.02009         0.17804
   H       -2.71827         7.41095        -0.29964
   H       -6.72505         7.45715         3.50132
   H       -6.68756         5.76625         0.96109
   H      -14.05059         6.86706         5.56424
   H      -14.65362         5.05706         3.65744
   H       -7.78506         4.18825         0.14976
   H      -10.71074         3.35105        -0.16729
   H       -7.19631         2.25442        -0.63624
   H       -4.15274         0.18173        -2.60064
   H       -3.47684         1.82796        -1.04903
   H       -5.12346         2.21619        -0.55104
   H       -3.95263         2.82052        -3.15553
   H       -5.47492         3.18479        -2.68525
   H       -5.92462        -0.12159        -0.14081
   H       -4.16931        -0.40756        -0.18411
   H       -6.11928        -1.88414        -1.77666
   H       -5.20492        -2.46224        -0.54413
   H       -4.52336        -1.18737        -4.27123
   H       -5.97958        -2.80277        -5.56345
   H       -7.60465        -1.84226        -7.28148
   H       -9.15801        -0.40337        -6.03526
   H      -10.44080         0.96995        -4.20345
   H      -11.12558         2.39845        -2.31460
   H       -4.08650        -2.34214        -6.88871
   H       -5.57944         0.13937        -7.85230
   H        1.35771        -3.43673       -11.86790
   H        0.90770        -1.12639       -13.18808
   H       -4.97546         1.89494        -9.13014
   H       -3.29643         2.34933       -11.64866
   H       -2.85589         4.78722       -11.44648
   H       -3.69272         7.08156       -11.23137
   H       -6.04301         7.49165       -10.54914
   H       -6.81707         1.18280       -10.18494
   H       -6.50652         1.66474       -11.86569
   H       -8.18111         1.57544       -11.24748
   H       -8.59752         5.98939       -10.77638
   H       -7.63301         6.63104        -8.43894
   H       -7.64290         2.61246        -6.19095
   H       -9.31765         2.15105        -6.57846
   H       -8.98592         3.22704        -5.19830
   H      -11.38584         3.83846        -6.14002
   H      -12.70044         7.11611        -8.56624
   H      -10.43603         7.41131        -9.45818
   H      -13.59441         4.54721        -5.94311
   H      -14.69631         6.51814        -8.00610
   H      -15.61309         5.60125        -6.72275
*
