# ORCA input file
# SCF done       -198.120659826368          0.000508648668
! CAM-B3LYP def2-SVP def2/J RIJCOSX Grid4 TightSCF
%maxcore 5000
%tddft
    Mode sTDDFT
    Ethresh 5.0
    maxcore 5000
end

%pal
  nprocs 6
  end
* xyz 0 1
   C        3.54404         5.11216         2.22052
   C        3.45651         6.20746         3.23404
   O        2.76637         6.18317         4.23007
   C        4.37382         7.24231         2.74738
   C        4.84180         6.89271         1.47520
   C        4.19889         5.65898         1.04200
   C        4.06337         5.21159        -0.23901
   C        3.18864         4.16305        -0.59923
   N        2.42816         3.37406        -0.93941
   C        4.67781         5.81713        -1.35694
   N        5.15551         6.27542        -2.29327
   C        5.76737         7.70539         0.80859
   C        6.19642         8.85365         1.42235
   C        5.72895         9.24626         2.69658
   C        4.79151         8.42558         3.38929
   C        4.33025         8.81882         4.66131
   C        4.77834         9.98246         5.22459
   C        5.70109        10.79504         4.54718
   C        6.16715        10.43628         3.31152
   C        3.17456         3.85654         2.53390
   C        3.40587         2.67490         1.74919
   N        4.57043         2.44237         1.18630
   C        4.46635         1.21558         0.60852
   C        3.14745         0.63630         0.84531
   C        3.03326        -0.68933         0.21401
   O        2.10112        -1.45761         0.23594
   C        4.35449        -0.83905        -0.43720
   C        5.19911         0.34695        -0.15854
   N        6.40658         0.22725        -0.76525
   C        6.36057        -0.91897        -1.39469
   C        5.10274        -1.63290        -1.24009
   C        2.43162         1.57228         1.55554
   C        1.07817         1.51481         1.95751
   C        0.36811         2.56152         2.46011
   C       -0.96593         2.50188         2.89827
   S       -1.95683         1.10556         2.68411
   C       -3.31106         1.81713         3.50333
   C       -2.99041         3.12581         3.94033
   C       -1.67023         3.52063         3.58371
   C       -1.18987         4.78484         3.94352
   C       -2.00275         5.66018         4.63944
   C       -1.55916         6.98757         5.04466
   C       -0.30532         7.42685         5.07029
   C       -3.32132         5.26042         4.96316
   C       -3.81409         4.02717         4.63343
   C       -4.51949         1.13537         3.72684
   N       -5.41316         1.63762         4.58818
   C       -6.42201         0.76429         4.63274
   C       -6.18105        -0.38744         3.75249
   C       -7.32388        -1.31931         3.81248
   O       -7.46057        -2.38870         3.25111
   C       -8.24737        -0.64592         4.73116
   C       -7.66012         0.61398         5.22352
   N       -8.51308         1.24848         6.05594
   C       -9.58129         0.48006         6.10188
   C       -9.48606        -0.71085         5.29251
   C       -4.97525        -0.15072         3.13624
   C       -4.35367        -0.88144         2.08286
   C       -4.88365        -2.02701         1.59511
   C       -4.37067        -2.72915         0.47160
   C       -5.07295        -3.64676        -0.23936
   C       -4.40481        -4.60687        -1.16218
   O       -3.28270        -4.50830        -1.60621
   C       -5.38329        -5.69411        -1.34926
   C       -6.58303        -5.36016        -0.71729
   C       -6.47396        -4.01702        -0.15786
   C       -7.51482        -3.18728         0.15506
   C       -7.38003        -1.79781         0.37354
   N       -7.34714        -0.65480         0.47142
   C       -8.86844        -3.58558         0.16826
   N       -9.98337        -3.85609         0.19248
   C       -7.66473        -6.25044        -0.72223
   C       -7.52681        -7.45005        -1.36997
   C       -6.33493        -7.81027        -2.03711
   C       -5.22412        -6.91735        -2.03005
   C       -4.03543        -7.28293        -2.69379
   C       -3.95250        -8.48389        -3.34306
   C       -5.04429        -9.36650        -3.35508
   C       -6.20875        -9.03902        -2.71618
   H        6.14419         7.42787        -0.16232
   H        6.91398         9.48946         0.92438
   H        3.62332         8.18676         5.17515
   H        4.42414        10.28415         6.19881
   H        6.04212        11.70839         5.01116
   H        6.87717        11.06014         2.78863
   H        2.71500         3.71046         3.50670
   H        7.20946        -1.26333        -1.95957
   H        4.86744        -2.58117        -1.68108
   H        0.59454         0.55453         1.82591
   H        0.84104         3.52981         2.54157
   H       -0.18971         5.08087         3.67095
   H       -2.35495         7.64646         5.37001
   H        0.54119         6.82079         4.79539
   H       -0.07812         8.42845         5.39380
   H       -3.95210         5.95576         5.49738
   H       -4.81298         3.72167         4.89741
   H      -10.42370         0.76144         6.70960
   H      -10.24668        -1.45852         5.18502
   H       -3.48561        -0.45348         1.60173
   H       -5.75894        -2.44229         2.07609
   H       -3.33838        -2.56850         0.18062
   H       -8.58344        -6.00242        -0.21603
   H       -8.34935        -8.15072        -1.38002
   H       -3.20311        -6.59722        -2.67743
   H       -3.04249        -8.76234        -3.85329
   H       -4.95695       -10.30953        -3.87431
   H       -7.05051        -9.71644        -2.72426
*
