# ORCA input file
# SCF done       -207.734213617494          0.000598571892
! CAM-B3LYP def2-SVP def2/J RIJCOSX Grid4 TightSCF
%maxcore 5000
%tddft
    Mode sTDDFT
    Ethresh 5.0
    maxcore 5000
end

%pal
  nprocs 6
  end
* xyz 0 1
   C        1.05351        -4.64649         3.21595
   C        0.37472        -5.15331         4.27512
   C       -0.85370        -5.98878         4.24037
   F       -1.25074        -6.22322         2.98240
   F       -0.68554        -7.19085         4.82054
   F       -1.89424        -5.41720         4.87241
   S        1.09531        -4.72457         5.79837
   C        2.33761        -3.84418         4.97119
   O        3.30997        -3.20714         5.60280
   C        3.32067        -3.25063         7.01379
   C        2.19492        -3.88439         3.58610
   C        3.10786        -3.22352         2.71005
   C        3.03227        -3.20869         1.35727
   C        3.98532        -2.51204         0.56958
   N        4.99720        -1.84858         1.11732
   C        5.67724        -1.30248         0.09583
   C        5.05879        -1.63192        -1.20200
   C        5.81719        -1.01320        -2.29987
   O        5.59196        -1.05122        -3.49260
   C        6.91218        -0.32733        -1.59312
   C        6.78736        -0.52594        -0.13612
   N        7.79317         0.10205         0.52061
   C        8.51696         0.66239        -0.41928
   C        8.02535         0.43410        -1.76059
   C        3.97393        -2.41938        -0.91414
   C        3.02040        -3.04516        -1.77099
   C        3.03345        -2.90173        -3.11236
   C        2.10729        -3.49873        -4.04663
   C        2.12114        -3.04314        -5.36537
   C        1.23456        -3.58141        -6.29223
   C        1.03769        -3.28742        -7.67761
   C        1.75974        -2.22554        -8.42762
   C        2.66076        -2.81669        -9.53390
   N        3.74651        -1.89743        -9.79132
   C        0.76780        -1.18896        -8.98989
   N        1.48444        -0.04829        -9.53984
   C        0.02699        -4.13791        -8.15582
   C       -0.44132        -4.37836        -9.43370
   C       -1.54391        -5.24424        -9.63988
   C       -2.10224        -6.02871        -8.47789
   C       -1.39066        -5.92834        -7.21342
   C       -0.45077        -4.97650        -7.04438
   C        0.33790        -4.61444        -5.89600
   C        0.33149        -5.07527        -4.58877
   C        1.20472        -4.51684        -3.67923
   C       -2.88691        -4.79717        -8.89771
   C       -4.09891        -4.86095        -9.62269
   C       -4.98954        -3.80728        -9.60218
   N       -4.73726        -2.66772        -8.90598
   C       -5.80135        -1.89960        -9.07514
   C       -6.82807        -2.55013        -9.91018
   C       -7.98486        -1.65500       -10.09602
   O       -9.00480        -1.87084       -10.72553
   C       -7.59505        -0.46085        -9.34664
   C       -6.27209        -0.63562        -8.73626
   N       -5.90332         0.46686        -8.05771
   C       -6.91044         1.31375        -8.20768
   C       -7.98907         0.80281        -8.99839
   C       -6.31167        -3.76472       -10.26795
   C       -6.84852        -4.79829       -11.09813
   C       -8.12929        -4.80435       -11.50557
   C       -8.74149        -5.78968       -12.36469
   C       -8.40928        -7.12532       -12.41936
   C       -7.45381        -7.90266       -11.59916
   F       -7.44580        -7.55372       -10.29977
   F       -7.71052        -9.21999       -11.62981
   F       -6.16045        -7.78896       -12.00328
   S       -9.36338        -8.00744       -13.56460
   C      -10.22662        -6.55913       -13.98407
   O      -11.18594        -6.57264       -14.91529
   C      -11.48121        -7.80952       -15.52171
   C       -9.80623        -5.45765       -13.27007
   C      -10.33443        -4.11257       -13.41447
   C      -11.30162        -3.73733       -14.24426
   H        0.74675        -4.81246         2.19999
   H        2.40765        -2.80908         7.42448
   H        4.18635        -2.67155         7.32713
   H        3.41110        -4.28073         7.37155
   H        3.92433        -2.69026         3.17620
   H        2.23531        -3.72354         0.84255
   H        9.39198         1.23373        -0.16155
   H        8.47346         0.80411        -2.66155
   H        2.26164        -3.64697        -1.29100
   H        3.79121        -2.26685        -3.55316
   H        2.82209        -2.27268        -5.64956
   H        2.43309        -1.70417        -7.74100
   H        2.04754        -3.03521       -10.42331
   H        3.08986        -3.76090        -9.18069
   H        3.36020        -1.01116       -10.10452
   H        4.36909        -2.25891       -10.50438
   H        0.06480        -0.91165        -8.18632
   H        0.18245        -1.63377        -9.79835
   H        1.96454         0.44985        -8.79621
   H        0.83097         0.59799        -9.96944
   H        0.01890        -3.91617       -10.29278
   H       -1.71985        -5.61421       -10.64013
   H       -2.57939        -6.97511        -8.69794
   H       -1.66185        -6.60803        -6.42005
   H       -0.34654        -5.85893        -4.28538
   H        1.20619        -4.88446        -2.66498
   H       -2.77336        -3.91332        -8.28295
   H       -4.32318        -5.74316       -10.20425
   H       -6.86626         2.28773        -7.75190
   H       -8.89302         1.32514        -9.24268
   H       -6.15854        -5.56646       -11.41200
   H       -8.76874        -3.98786       -11.19968
   H      -10.60777        -8.20625       -16.04965
   H      -12.28410        -7.61615       -16.23016
   H      -11.81030        -8.54330       -14.77878
   H       -9.88065        -3.37057       -12.77419
   H      -11.79500        -4.42083       -14.91091
   H      -11.62760        -2.71198       -14.27214
*
