# ORCA input file
# SCF done       -215.480182858024          0.000841425658
! CAM-B3LYP def2-SVP def2/J RIJCOSX Grid4 TightSCF
%maxcore 5000
%tddft
    Mode sTDDFT
    Ethresh 5.0
    maxcore 5000
end

%pal
  nprocs 6
  end
* xyz 0 1
   C        2.40665         6.21134       -12.55651
   C        1.23020         6.90965       -12.54794
   F        1.04502         7.90002       -13.43846
   C        0.19525         6.63568       -11.64200
   C        0.36410         5.63321       -10.72814
   C        1.55825         4.88316       -10.69417
   C        2.59977         5.17500       -11.62334
   C        3.80448         4.43241       -11.59803
   C        3.95598         3.43247       -10.67642
   C        2.90169         3.13650        -9.75837
   C        1.73083         3.84307        -9.75665
   C        3.29001         2.00368        -8.91139
   O        2.67867         1.48342        -8.00726
   C        4.60365         1.53751        -9.47208
   C        5.08119         2.54447       -10.39537
   C        6.38867         2.75570       -10.73348
   C        7.46766         2.07344       -10.12374
   N        8.38235         1.69015        -9.54458
   C        6.81033         3.79058       -11.59440
   N        7.18525         4.61607       -12.29710
   C        4.99841         0.26475        -9.21115
   C        5.92854        -0.52880        -9.93245
   N        6.66246        -0.05676       -10.93029
   C        7.48905        -1.05494       -11.29688
   C        7.27318        -2.24693       -10.46534
   C        8.17627        -3.33845       -10.86647
   O        8.25237        -4.45591       -10.40783
   C        8.93923        -2.72447       -11.97239
   C        8.47921        -1.33400       -12.20531
   N        9.14254        -0.77943       -13.24818
   C        9.96134        -1.71063       -13.66835
   C        9.87693        -2.95614       -12.92366
   C        6.23250        -1.95113        -9.63061
   C        5.57968        -2.80799        -8.68717
   C        4.25731        -2.73222        -8.43093
   C        3.49452        -3.44339        -7.45613
   S        2.08511        -2.59307        -6.91340
   C        1.74599        -3.80810        -5.71353
   C        2.67971        -4.84083        -5.78747
   C        3.65776        -4.64476        -6.77671
   C        4.72425        -5.66003        -7.10499
   N        4.69658        -5.96487        -8.52839
   C        4.47410        -6.96944        -6.34885
   C        4.04926        -6.71080        -4.91269
   C        2.66564        -6.04175        -4.88164
   N        2.21871        -5.67600        -3.54725
   C        0.64671        -3.63947        -4.84489
   C       -0.07503        -2.48288        -4.82382
   C       -1.18137        -2.23835        -3.98898
   N       -1.62590        -3.10193        -3.07557
   C       -2.62806        -2.48639        -2.43408
   C       -2.82353        -1.11931        -2.94616
   C       -3.93716        -0.44169        -2.26477
   O       -4.35338         0.68124        -2.46044
   C       -4.38954        -1.46926        -1.31618
   C       -3.56670        -2.69450        -1.44604
   N       -3.99208        -3.64585        -0.58551
   C       -5.01033        -3.10776         0.04813
   C       -5.31459        -1.75667        -0.36134
   C       -1.93003        -0.95640        -3.96433
   C       -1.84882         0.20912        -4.78578
   C       -1.50609         0.27871        -6.08888
   C       -1.53291         1.49524        -6.83482
   C       -2.30811         2.59320        -6.64368
   C       -1.91692         3.87535        -7.28895
   O       -1.11711         4.01741        -8.19105
   C       -2.65663         4.92214        -6.56927
   C       -2.54189         6.28041        -6.66358
   C       -3.33184         7.09721        -5.82595
   C       -4.22367         6.48789        -4.89473
   C       -4.99594         7.30972        -4.05106
   C       -4.87729         8.66838        -4.14521
   C       -4.00870         9.28623        -5.05599
   C       -3.25045         8.50419        -5.88132
   F       -5.61326         9.45533        -3.34102
   C       -4.32852         5.07928        -4.82463
   C       -3.56434         4.30889        -5.65823
   C       -3.47951         2.85910        -5.81814
   C       -4.46893         1.98424        -5.46715
   C       -4.47179         0.61176        -5.79001
   N       -4.54112        -0.50058        -6.06299
   C       -5.66545         2.37618        -4.82624
   N       -6.66774         2.65774        -4.34565
   H        3.17972         6.45325       -13.26901
   H       -0.70987         7.22047       -11.68975
   H       -0.40934         5.38778       -10.01652
   H        4.57492         4.66509       -12.31615
   H        0.93973         3.62119        -9.05661
   H        4.46620        -0.21771        -8.40053
   H       10.62391        -1.51943       -14.49440
   H       10.45539        -3.83751       -13.11777
   H        6.21106        -3.54606        -8.21325
   H        3.67174        -2.00220        -8.97621
   H        5.69606        -5.24286        -6.76830
   H        4.87962        -5.14718        -9.09690
   H        5.40468        -6.65658        -8.74732
   H        5.38201        -7.57427        -6.37463
   H        3.68833        -7.51575        -6.87365
   H        4.77647        -6.05712        -4.42144
   H        4.00868        -7.65001        -4.35716
   H        1.92347        -6.75050        -5.27711
   H        2.88160        -5.04580        -3.10821
   H        2.13691        -6.50081        -2.96455
   H        0.40446        -4.44608        -4.16870
   H        0.22851        -1.66952        -5.46964
   H       -5.53666        -3.66875         0.80093
   H       -6.10606        -1.14769         0.02837
   H       -2.16551         1.11588        -4.28307
   H       -1.15974        -0.59680        -6.61920
   H       -0.80078         1.57973        -7.63278
   H       -1.85184         6.72852        -7.36326
   H       -5.67717         6.86815        -3.34082
   H       -3.95742        10.36304        -5.08446
   H       -2.57339         8.95722        -6.58992
   H       -4.99908         4.64165        -4.10235
*
