# ORCA input file
# SCF done       -216.338167486523          0.000317681844
! CAM-B3LYP def2-SVP def2/J RIJCOSX Grid4 TightSCF
%maxcore 5000
%tddft
    Mode sTDDFT
    Ethresh 5.0
    maxcore 5000
end

%pal
  nprocs 6
  end
* xyz 0 1
   C       -3.23403        -7.79810         1.47206
   C       -3.63443        -9.11757         1.33152
   C       -4.31497        -9.77205         2.34981
   C       -4.62428        -9.12225         3.53539
   C       -4.23574        -7.80134         3.68558
   C       -3.53072        -7.13645         2.65508
   C       -3.20495        -5.78984         3.09809
   C       -2.64097        -4.80526         2.33637
   C       -2.35508        -4.94721         0.95828
   N       -2.11856        -4.98379        -0.16345
   C       -2.28096        -3.50704         2.75680
   N       -1.92112        -2.43951         2.97842
   C       -3.59057        -5.70840         4.50958
   C       -4.44654        -6.86542         4.78000
   C       -5.43492        -6.94532         5.71467
   C       -5.83345        -5.88403         6.56061
   N       -6.29389        -5.04120         7.18818
   C       -6.28626        -8.06482         5.85118
   N       -7.00424        -8.94735         5.99471
   C       -3.09363        -4.79258         5.38363
   C       -3.14907        -4.83838         6.80264
   N       -3.51972        -5.90033         7.50210
   C       -3.49106        -5.52082         8.79424
   C       -3.09579        -4.10586         8.92229
   C       -3.09149        -3.69533        10.34120
   O       -2.80674        -2.62276        10.81574
   C       -3.51065        -4.93606        11.02934
   C       -3.73475        -6.02271        10.04534
   N       -4.09607        -7.16995        10.67228
   C       -4.11112        -6.87244        11.94623
   C       -3.74737        -5.49472        12.24058
   C       -2.82459        -3.67308         7.66115
   C       -2.42081        -2.39322         7.14133
   C       -1.36222        -2.23956         6.33181
   C       -1.02641        -1.03218         5.62984
   S        0.62405        -0.55599         5.50770
   C       -1.85186        -0.20656         4.88023
   C       -3.26265        -0.56588         4.58545
   O       -3.87324        -1.46499         5.13949
   C       -3.82775         0.23936         3.52358
   C       -5.05908         0.15966         2.90737
   N       -5.15465         1.16241         2.00414
   C       -6.25922         1.37680         1.10266
   C       -6.00278         0.70483        -0.24378
   C       -4.02025         1.89620         2.01615
   C       -3.15951         1.35557         2.95029
   C       -1.84584         1.81062         3.35020
   O       -1.39549         2.88441         2.97993
   C       -1.14414         0.85222         4.23690
   C        0.23116         0.80446         4.48782
   C        1.37122         1.50198         4.00412
   C        1.39836         2.59087         3.19511
   C        2.59054         3.08111         2.61029
   N        3.80707         2.87285         3.09942
   C        4.65610         3.52621         2.28793
   C        3.93060         4.21079         1.20378
   C        4.85894         4.86998         0.27137
   O        4.58756         5.47703        -0.74284
   C        6.16718         4.57673         0.87733
   C        5.99950         3.75681         2.10066
   N        7.20323         3.46177         2.64289
   C        8.08586         4.02593         1.85199
   C        7.50920         4.72978         0.72777
   C        2.60950         3.91571         1.38094
   C        1.56045         4.23185         0.46791
   C        0.43725         3.50836         0.27960
   C       -0.54569         3.80399        -0.71250
   C       -0.33336         4.28839        -1.96357
   C       -1.36905         4.88110        -2.80806
   C       -2.72437         4.74426        -2.66951
   C       -3.37926         3.96100        -1.69927
   N       -4.00137         3.34492        -0.95437
   C       -3.67252         5.34425        -3.52702
   N       -4.50006         5.79421        -4.18240
   C       -0.68375         5.65268        -3.83223
   C        0.70677         5.41373        -3.73296
   C        1.59745         6.05906        -4.57489
   C        1.09187         6.93168        -5.52637
   C       -0.27430         7.15396        -5.63884
   C       -1.17454         6.52257        -4.79488
   C        0.93637         4.43395        -2.68363
   C        2.03546         3.62976        -2.58634
   C        3.16810         3.74220        -3.42394
   N        4.10107         3.76646        -4.09018
   C        2.14731         2.51416        -1.72898
   N        2.28679         1.55936        -1.10762
   H       -2.69603        -7.30977         0.67634
   H       -3.40545        -9.64391         0.41774
   H       -4.60617       -10.80293         2.21991
   H       -5.14215        -9.64382         4.32347
   H       -2.55016        -3.94739         4.98278
   H       -4.37853        -7.61788        12.67510
   H       -3.69623        -5.06099        13.21945
   H       -3.02671        -1.54649         7.43018
   H       -0.66837        -3.06128         6.19075
   H       -5.85474        -0.54004         3.07123
   H       -6.38281         2.45213         0.95509
   H       -7.16457         0.97437         1.56389
   H       -5.13322         1.15013        -0.71960
   H       -6.86208         0.84216        -0.89367
   H       -5.82783        -0.36068        -0.11298
   H       -3.88588         2.73375         1.36045
   H        2.32464         1.05833         4.26732
   H        0.47967         3.09198         2.93229
   H        9.13717         3.94176         2.06638
   H        8.05797         5.24731        -0.03392
   H        1.75977         5.08778        -0.16738
   H        0.20225         2.68249         0.93431
   H       -1.56722         3.64698        -0.39174
   H        2.66014         5.90329        -4.48510
   H        1.77242         7.44599        -6.18731
   H       -0.64410         7.83462        -6.39032
   H       -2.23059         6.71604        -4.88858
*
