# ORCA input file
# SCF done       -201.005414982974          0.000580287445
! CAM-B3LYP def2-SVP def2/J RIJCOSX Grid4 TightSCF
%maxcore 5000
%tddft
    Mode sTDDFT
    Ethresh 5.0
    maxcore 5000
end

%pal
  nprocs 6
  end
* xyz 0 1
   C       -9.81438        -7.50770         7.97684
   C      -10.93660        -8.27957         7.71809
   C      -11.04466        -9.01578         6.54496
   C      -10.03623        -9.00277         5.59186
   C       -8.91004        -8.23452         5.83522
   C       -8.79923        -7.48603         7.03282
   C       -7.54160        -6.76421         7.01483
   C       -6.93116        -6.13397         8.05975
   C       -7.45690        -6.07174         9.36770
   N       -7.80748        -5.95826        10.45456
   C       -5.67959        -5.47957         8.00007
   N       -4.67361        -4.92730         8.03769
   C       -6.99969        -6.90908         5.66116
   C       -7.69811        -8.04128         5.05025
   C       -7.20883        -8.87528         4.09072
   C       -5.88336        -8.81925         3.60249
   N       -4.78696        -8.89671         3.27303
   C       -7.92154        -9.98746         3.58946
   N       -8.46633       -10.89924         3.15823
   C       -6.14833        -6.00811         5.11299
   C       -5.68719        -5.91182         3.77034
   N       -6.27515        -6.47690         2.73158
   C       -5.52808        -6.14126         1.65565
   C       -4.37943        -5.31322         2.04204
   C       -3.55944        -4.97943         0.86782
   O       -2.54662        -4.31522         0.82411
   C       -4.28123        -5.65461        -0.22864
   C       -5.48318        -6.34574         0.30014
   N       -6.15606        -6.96574        -0.69968
   C       -5.46532        -6.71844        -1.78299
   C       -4.27980        -5.90389        -1.56018
   C       -4.47495        -5.13958         3.40002
   C       -3.65626        -4.43899         4.31858
   C       -2.50493        -3.79521         4.00008
   C       -1.77249        -3.07422         4.97582
   S       -2.42176        -2.86341         6.56795
   C       -1.05314        -1.92319         7.07224
   C       -0.11952        -1.81386         6.03035
   C       -0.53772        -2.43904         4.85316
   C        0.27142        -2.43878         3.59567
   C        1.32629        -1.32451         3.63665
   C        2.22872        -1.47124         2.51556
   N        2.94095        -1.61938         1.63549
   C        2.10547        -1.39941         4.96790
   C        3.20550        -0.45965         4.95301
   N        4.05568         0.30202         4.93361
   C        1.17332        -1.08212         6.14555
   C       -0.94106        -1.38222         8.37182
   N        0.19081        -0.79310         8.75508
   C        0.00503        -0.41079        10.02713
   C       -1.33468        -0.77304        10.50753
   C       -1.51966        -0.31868        11.89998
   O       -2.48533        -0.46945        12.62071
   C       -0.24430         0.34370        12.19677
   C        0.66619         0.25432        11.03462
   N        1.84025         0.86842        11.29820
   C        1.71690         1.33539        12.52008
   C        0.43933         1.04947        13.13623
   C       -1.96957        -1.38045         9.45055
   C       -3.32019        -1.81022         9.35300
   C       -4.19835        -1.75409        10.38585
   C       -5.55962        -2.10436        10.21667
   C       -6.56323        -1.82509        11.09683
   C       -7.87728        -2.45499        11.10261
   C       -8.49487        -3.07768        10.05191
   C       -7.96899        -3.20016         8.75279
   N       -7.62014        -3.38477         7.67225
   C       -9.75947        -3.70310        10.11144
   N      -10.77196        -4.24095        10.05968
   C       -8.41472        -2.28424        12.44209
   C       -7.55054        -1.44165        13.18075
   C       -7.82939        -1.13345        14.50160
   C       -8.97220        -1.66826        15.07821
   C       -9.82446        -2.48935        14.35223
   C       -9.55705        -2.80568        13.02916
   C       -6.47238        -1.00757        12.30452
   C       -5.68915         0.09943        12.47238
   C       -5.66951         0.87177        13.65420
   N       -5.62136         1.52687        14.59434
   C       -4.92514         0.69248        11.44119
   N       -4.37352         1.26492        10.61397
   H       -9.75002        -6.92581         8.88264
   H      -11.73984        -8.30013         8.43802
   H      -11.93105        -9.60483         6.36626
   H      -10.13967        -9.56738         4.67941
   H       -5.80155        -5.21721         5.76325
   H       -5.78765        -7.10586        -2.73383
   H       -3.58706        -5.59430        -2.31736
   H       -3.97720        -4.42292         5.35251
   H       -2.12898        -3.81943         2.98607
   H       -0.37557        -2.30648         2.72555
   H        0.76857        -3.40872         3.48159
   H        0.84025        -0.34380         3.56115
   H        2.52079        -2.40894         5.07939
   H        0.97000        -0.00667         6.18743
   H        1.65268        -1.33003         7.09453
   H        2.52769         1.87501        12.97759
   H        0.13951         1.34738        14.12129
   H       -3.69094        -2.12732         8.39027
   H       -3.85441        -1.44407        11.36255
   H       -5.79475        -2.68970         9.33725
   H       -7.17137        -0.50351        15.07791
   H       -9.19922        -1.44218        16.10881
   H      -10.70730        -2.89230        14.82440
   H      -10.22147        -3.45147        12.47844
*
