# ORCA input file
# SCF done       -224.343398139294          0.000795513186
! CAM-B3LYP def2-SVP def2/J RIJCOSX Grid4 TightSCF
%maxcore 5000
%tddft
    Mode sTDDFT
    Ethresh 5.0
    maxcore 5000
end

%pal
  nprocs 6
  end
* xyz 0 1
   C       -5.41081         4.67208        -8.16894
   C       -5.88349         5.42812        -7.12097
   C       -7.20248         5.90081        -7.01497
   N       -8.27686         6.27029        -6.83805
   C       -5.09308         5.84888        -6.03740
   N       -4.48628         6.24467        -5.14509
   C       -6.09999         4.49600        -9.44445
   C       -5.15106         4.05307       -10.41103
   C       -5.49654         3.84866       -11.71430
   C       -6.83420         4.07116       -12.11678
   C       -7.79096         4.49795       -11.15248
   C       -7.40080         4.70941        -9.80891
   C       -9.12102         4.71295       -11.56540
   C       -9.49036         4.52104       -12.86905
   C       -8.54716         4.10231       -13.81844
   C       -7.24758         3.88189       -13.44968
   C       -3.84084         3.87162        -9.75277
   O       -2.79227         3.54407       -10.26638
   C       -4.08839         4.12685        -8.31347
   C       -3.13971         3.75404        -7.39376
   C       -3.31122         3.52263        -6.02619
   C       -4.48371         3.27148        -5.29473
   N       -5.70327         3.08208        -5.82068
   C       -6.70992         2.92107        -4.99445
   C       -8.03722         2.63859        -5.62909
   C       -8.29245         1.12998        -5.68042
   C       -6.51475         2.95142        -3.58136
   C       -7.64746         2.95515        -2.60015
   C       -8.14030         4.39158        -2.40154
   N       -5.31181         3.01510        -3.06170
   C       -4.26704         3.16007        -3.89117
   C       -2.91148         3.27273        -3.52573
   S       -1.94811         3.49218        -4.94220
   C       -2.34730         3.31378        -2.21631
   C       -3.17778         3.30392        -1.11094
   C       -2.63756         3.42349         0.17874
   C       -3.24928         3.48633         1.42649
   C       -4.70372         3.41296         1.74985
   C       -5.46375         4.60429         1.13966
   N       -4.97794         5.83811         1.73313
   C       -5.30692         2.06820         1.30815
   N       -4.72629         1.00968         2.11646
   C       -2.19498         3.68385         2.39053
   C       -2.24064         3.86520         3.72253
   C       -1.00706         4.15499         4.50975
   C        0.26428         4.07438         3.73007
   C        0.29166         3.88391         2.39850
   C       -0.91251         3.70783         1.67357
   C       -1.19147         3.54704         0.33353
   C       -0.36403         3.51686        -0.81613
   C       -0.92422         3.40864        -2.04468
   C       -1.03314         3.37276         5.79205
   C       -0.08235         2.52868         6.21204
   C       -0.14960         1.85312         7.46736
   C       -1.17558         1.85456         8.42375
   N       -2.37002         2.46286         8.31691
   C       -3.21536         2.33316         9.30869
   C       -4.59309         2.87173         9.07545
   C       -5.50427         1.73774         8.59451
   C       -2.84073         1.67520        10.52431
   C       -3.68659         1.70824        11.75985
   C       -3.46367         3.01768        12.52167
   N       -1.69078         1.05774        10.63484
   C       -0.87051         1.06495         9.57116
   C        0.36546         0.40578         9.48607
   S        1.15083         0.86078         8.00281
   C        0.99862        -0.43991        10.40947
   C        0.44295        -1.10372        11.46873
   C       -0.92195        -1.40967        11.81456
   C       -1.96269        -1.60552        10.93989
   C       -3.28280        -1.88856        11.33261
   N       -4.38678        -2.07421        11.59197
   C       -1.81938        -1.56283         9.54125
   N       -1.74404        -1.55321         8.39503
   C       -0.95271        -1.71248        13.24188
   C        0.38981        -1.81372        13.71064
   C        1.31504        -1.52035        12.59837
   O        2.52560        -1.55789        12.60720
   C        0.67518        -2.12065        15.00889
   C       -0.38763        -2.33282        15.91722
   C       -1.73133        -2.22021        15.45830
   C       -1.99655        -1.90973        14.10384
   C       -2.78117        -2.42859        16.37526
   C       -2.51929        -2.73652        17.68265
   C       -1.19590        -2.84795        18.13350
   C       -0.15309        -2.65060        17.26926
   H       -4.75978         3.52343       -12.43390
   H       -8.14642         5.03180        -9.09856
   H       -9.84334         5.03871       -10.83092
   H      -10.51162         4.69221       -13.17572
   H       -8.85473         3.95557       -14.84322
   H       -6.51656         3.55935       -14.17691
   H       -2.15230         3.56111        -7.80172
   H       -8.01473         3.02893        -6.64740
   H       -8.83798         3.13702        -5.08304
   H       -7.51499         0.64154        -6.26318
   H       -9.25355         0.93042        -6.14752
   H       -8.29477         0.69803        -4.68166
   H       -7.27841         2.56802        -1.64874
   H       -8.46719         2.32494        -2.94363
   H       -7.33046         5.01502        -2.02971
   H       -8.95632         4.41246        -1.68328
   H       -8.49114         4.81611        -3.33989
   H       -4.24095         3.23491        -1.26705
   H       -4.81936         3.46300         2.83699
   H       -6.54626         4.44465         1.28852
   H       -5.27350         4.65676         0.06689
   H       -5.24593         5.89040         2.71039
   H       -5.37154         6.64183         1.25802
   H       -5.15352         1.93032         0.22748
   H       -6.38434         2.07560         1.50150
   H       -3.72359         0.96863         1.96240
   H       -5.11873         0.10975         1.86356
   H       -3.16872         3.83176         4.27512
   H       -1.11336         5.21276         4.82140
   H        1.17399         4.23622         4.28781
   H        1.23075         3.86653         1.86463
   H        0.70727         3.59216        -0.70136
   H       -0.30762         3.39606        -2.93175
   H       -1.90605         3.51907         6.41220
   H        0.79982         2.33505         5.61774
   H       -4.53550         3.63834         8.30156
   H       -5.00032         3.31658         9.98296
   H       -5.12084         1.31890         7.66712
   H       -6.50899         2.11420         8.41917
   H       -5.55594         0.93932         9.33180
   H       -3.38929         0.87372        12.39619
   H       -4.74087         1.59553        11.50797
   H       -2.41904         3.10623        12.81096
   H       -4.07518         3.03344        13.42020
   H       -3.72406         3.87821        11.90877
   H        2.07840        -0.52100        10.32929
   H        1.69923        -2.20051        15.34257
   H       -3.02366        -1.82698        13.78321
   H       -3.79894        -2.34473        16.02276
   H       -3.33105        -2.89666        18.37656
   H       -1.00662        -3.09090        19.16849
   H        0.86829        -2.73509        17.61094
*
