# ORCA input file
# SCF done       -195.997255715355          0.000862277014
! CAM-B3LYP def2-SVP def2/J RIJCOSX Grid4 TightSCF
%maxcore 5000
%tddft
    Mode sTDDFT
    Ethresh 5.0
    maxcore 5000
end

%pal
  nprocs 6
  end
* xyz 0 1
   N       -5.01616       -15.38127         0.55755
   C       -4.36608       -16.58651         1.03881
   C       -4.95367       -17.02451         2.37415
   C       -4.00877       -17.93209         3.16378
   N       -4.64243       -18.21492         4.43728
   S       -4.17792       -16.92768         5.47354
   N       -2.57389       -16.85180         4.84801
   C       -2.62898       -17.22301         3.44295
   C       -2.45833       -15.97046         2.57933
   C       -2.84118       -16.29800         1.13745
   N       -2.58120       -15.19062         0.24168
   S       -4.01748       -14.71436        -0.62463
   C       -1.34306       -14.81442        -0.13762
   C       -1.10697       -13.89634        -1.10653
   C        0.17355       -13.46508        -1.51354
   C        1.48084       -13.88843        -0.99778
   N        2.49987       -13.33081        -1.58233
   C        1.96440       -12.49906        -2.53130
   C        0.50768       -12.56362        -2.50735
   C       -0.04321       -11.68326        -3.49419
   S       -1.65738       -11.43398        -3.75267
   C        1.10441       -11.08371        -4.13795
   C        2.32682       -11.60985        -3.51191
   N        3.44071       -11.05561        -4.07159
   C        2.99515       -10.22051        -4.96410
   C        1.53487       -10.16239        -5.07717
   C        0.82352        -9.32323        -5.99963
   C       -0.49482        -9.59405        -6.32045
   C       -1.19172        -8.77275        -7.21803
   C       -2.50959        -8.80906        -7.67599
   C       -3.59749        -9.78430        -7.38711
   C       -3.15780       -11.24684        -7.56283
   N       -2.34435       -11.39530        -8.75819
   C       -4.16112        -9.56629        -5.96927
   N       -4.76912        -8.24749        -5.88279
   C       -2.67940        -7.66490        -8.53552
   C       -3.77906        -7.16463        -9.13493
   C       -3.68332        -6.01284       -10.07220
   C       -2.35595        -5.32562       -10.09029
   C       -1.28609        -5.79171        -9.41653
   C       -1.39471        -6.96000        -8.62701
   C       -0.50584        -7.63146        -7.80778
   C        0.84339        -7.38158        -7.47329
   C        1.48229        -8.20058        -6.59887
   C       -3.89710        -6.65853       -11.42168
   C       -4.80059        -6.29059       -12.33479
   C       -5.01556        -7.07342       -13.51662
   C       -5.52827        -6.62875       -14.80044
   N       -5.64089        -7.58086       -15.69442
   C       -5.23342        -8.71710       -15.07008
   C       -4.80793        -8.42754       -13.69691
   C       -4.52515        -9.65988       -13.00851
   S       -4.25353        -9.93582       -11.39804
   C       -4.70229       -10.66844       -13.99602
   C       -5.16240       -10.08745       -15.24726
   N       -5.44262       -11.07106       -16.15366
   C       -5.22020       -12.19999       -15.53873
   C       -4.75817       -12.03905       -14.16232
   N       -4.40416       -13.00600       -13.29770
   C       -4.78286       -14.39523       -13.47876
   C       -6.29226       -14.57119       -13.30773
   C       -6.68925       -16.04653       -13.31250
   N       -8.10866       -16.13210       -13.01820
   S       -8.23384       -16.38126       -11.32250
   N       -6.84867       -17.39716       -11.25996
   C       -5.89623       -16.85502       -12.21401
   C       -4.91576       -15.95354       -11.46656
   C       -3.98505       -15.22562       -12.43780
   N       -3.12363       -14.29208       -11.76468
   S       -3.81456       -12.73706       -11.70848
   C       -1.87478       -14.56993       -11.27459
   C       -1.30914       -15.76793       -11.17494
   H       -5.20288       -14.72221         1.30934
   H       -4.52811       -17.35452         0.27357
   H       -5.89422       -17.55023         2.21365
   H       -5.17172       -16.15335         2.99509
   H       -3.85301       -18.86742         2.61845
   H       -4.37393       -19.11537         4.82290
   H       -1.94923       -17.44277         5.38602
   H       -1.81239       -17.91918         3.21976
   H       -1.42226       -15.63554         2.63773
   H       -3.08280       -15.16828         2.97313
   H       -2.27379       -17.18074         0.81029
   H       -0.53571       -15.29327         0.39878
   H       -1.95284       -13.46124        -1.62398
   H        1.64122       -14.59946        -0.20542
   H        3.69190        -9.66738        -5.56933
   H       -0.98353       -10.44284        -5.87546
   H       -4.40902        -9.59112        -8.09514
   H       -4.06906       -11.86931        -7.57581
   H       -2.55728       -11.56951        -6.70932
   H       -2.84788       -11.04096        -9.56583
   H       -2.14876       -12.37749        -8.92061
   H       -3.35697        -9.72750        -5.23727
   H       -4.94347       -10.30678        -5.78253
   H       -4.05351        -7.53305        -5.97701
   H       -5.21036        -8.12655        -4.97777
   H       -4.75035        -7.62404        -9.02620
   H       -4.48848        -5.29082        -9.89472
   H       -2.28852        -4.44548       -10.71170
   H       -0.33883        -5.27326        -9.46135
   H        1.35203        -6.53273        -7.90734
   H        2.50484        -7.99326        -6.32384
   H       -3.24831        -7.49867       -11.61707
   H       -5.41084        -5.40572       -12.20523
   H       -5.78423        -5.61365       -15.04984
   H       -5.35240       -13.13305       -16.05772
   H       -4.49085       -14.69265       -14.49283
   H       -6.81886       -14.06146       -14.11622
   H       -6.62080       -14.11938       -12.37056
   H       -6.49856       -16.47023       -14.30398
   H       -8.57571       -16.87218       -13.53272
   H       -7.09675       -18.36187       -11.45631
   H       -5.34525       -17.67835       -12.68101
   H       -4.32169       -16.56122       -10.78353
   H       -5.47148       -15.23550       -10.86309
   H       -3.35680       -15.96072       -12.95499
   H       -1.35640       -13.67796       -10.94940
   H       -1.79839       -16.67785       -11.47262
   H       -0.31138       -15.86017       -10.79125
*
