# ORCA input file
# SCF done       -180.738108506545          0.000546803778
! CAM-B3LYP def2-SVP def2/J RIJCOSX Grid4 TightSCF
%maxcore 5000
%tddft
    Mode sTDDFT
    Ethresh 5.0
    maxcore 5000
end

%pal
  nprocs 6
  end
* xyz 0 1
   C        0.31052        -4.42604        -7.34864
   C       -0.87093        -5.34032        -7.32268
   O       -1.12807        -6.14300        -6.45521
   C       -1.64376        -4.99312        -8.52735
   C       -0.92966        -4.06854        -9.29356
   C        0.35802        -3.81026        -8.65989
   C        1.47496        -3.29732        -9.26175
   C        2.75764        -3.33957        -8.67215
   N        3.82662        -3.41764        -8.26210
   C        1.49725        -2.76936       -10.56959
   N        1.56173        -2.31749       -11.62219
   C       -1.46646        -3.56295       -10.48477
   C       -2.70283        -3.99814       -10.88550
   C       -3.44604        -4.94039       -10.14051
   C       -2.91294        -5.45790        -8.92376
   C       -3.65958        -6.39452        -8.18051
   C       -4.88538        -6.80509        -8.62753
   C       -5.41439        -6.30088        -9.82642
   C       -4.71236        -5.38927       -10.56677
   C        1.04422        -4.22275        -6.22916
   C        1.94082        -3.15450        -5.95423
   C        1.86935        -1.77244        -6.45915
   N        2.76006        -0.97418        -5.95494
   C        3.50684        -1.73949        -5.10628
   C        2.99938        -3.11726        -5.08010
   C        3.77916        -3.91856        -4.16798
   S        3.57599        -5.52654        -3.85417
   C        4.73012        -2.99880        -3.61667
   C        4.54801        -1.66837        -4.21641
   N        5.43270        -0.77350        -3.67961
   C        6.11550        -1.43878        -2.79971
   C        5.73866        -2.85364        -2.68138
   C        6.28515        -3.79249        -1.78338
   N        5.90371        -5.09903        -1.79193
   C        6.53061        -5.76600        -0.79190
   C        7.36032        -4.85200        -0.11618
   C        7.21495        -3.62915        -0.73917
   C        6.33215        -7.11645        -0.56095
   C        6.13329        -8.30317        -0.37825
   C        5.88388        -9.65095        -0.18757
   C        6.02412       -10.27067         1.01287
   C        5.72857       -11.63709         1.23585
   C        5.50581       -12.68877         0.23030
   N        5.20796       -13.85179         0.72430
   C        5.18764       -13.68238         2.08045
   C        5.55877       -12.30183         2.43250
   C        5.45626       -12.10620         3.85085
   S        5.76158       -10.74643         4.72093
   C        4.98781       -13.38054         4.34555
   C        4.84835       -14.33781         3.23352
   N        4.33178       -15.51713         3.68249
   C        4.06975       -15.32904         4.94001
   C        4.43057       -13.99281         5.43911
   C        4.22946       -13.50544         6.76308
   C        3.17924       -13.79426         7.56542
   C        3.23258       -13.52995         9.03516
   O        4.05181       -12.84530         9.60326
   C        2.12900       -14.32337         9.60317
   C        1.39310       -14.91234         8.57177
   C        1.92662       -14.47236         7.28817
   C        1.26346       -14.48169         6.09077
   C        1.68614       -13.75814         4.95434
   N        1.93775       -13.12272         4.03216
   C        0.01763       -15.11121         5.88209
   N       -0.98517       -15.62097         5.65654
   C        0.30410       -15.74632         8.85764
   C       -0.03440       -15.95988        10.16833
   C        0.67259       -15.36041        11.23405
   C        1.79071       -14.52049        10.95643
   C        2.49429       -13.92562        12.02328
   C        2.10140       -14.14940        13.31424
   C        0.99964       -14.97378        13.59344
   C        0.30138       -15.56776        12.57785
   H       -0.92414        -2.83858       -11.07062
   H       -3.13330        -3.61607       -11.79982
   H       -3.24383        -6.77510        -7.26098
   H       -5.45662        -7.52304        -8.05844
   H       -6.38394        -6.63939       -10.16036
   H       -5.11746        -5.00046       -11.48973
   H        0.87882        -4.92806        -5.41930
   H        1.12613        -1.39997        -7.14279
   H        6.89075        -0.95743        -2.23000
   H        5.20170        -5.48537        -2.43000
   H        7.98861        -5.08758         0.71965
   H        7.70673        -2.71365        -0.47706
   H        5.52349       -10.19215        -1.05334
   H        6.32798        -9.69439         1.87708
   H        5.59835       -12.56459        -0.83483
   H        3.67126       -16.12566         5.54502
   H        5.00555       -12.87359         7.18296
   H       -0.25191       -16.21923         8.06453
   H       -0.86964       -16.60237        10.40666
   H        3.33897       -13.29413        11.79766
   H        2.63824       -13.69050        14.13083
   H        0.70670       -15.13567        14.62012
   H       -0.54710       -16.20191        12.79008
*
