# ORCA input file
# SCF done       -200.570842515665          0.000658562861
! CAM-B3LYP def2-SVP def2/J RIJCOSX Grid4 TightSCF
%maxcore 5000
%tddft
    Mode sTDDFT
    Ethresh 5.0
    maxcore 5000
end

%pal
  nprocs 6
  end
* xyz 0 1
   C        1.43487       -10.46017         1.16525
   C        2.00508       -10.64976         2.38865
   S        2.72822        -9.22745         3.05325
   C        2.27652        -8.34296         1.66048
   C        1.58867        -9.12914         0.73965
   C        1.21388        -8.30434        -0.41044
   O        0.56449        -8.59345        -1.38714
   C        1.87410        -6.97851        -0.14653
   C        2.37002        -6.97542         1.22630
   C        2.67261        -5.90813         2.02490
   C        3.08767        -6.10254         3.35976
   N        3.42147        -6.26787         4.44454
   C        2.48271        -4.55718         1.66872
   N        2.23857        -3.45108         1.48291
   C        2.04977        -6.10363        -1.16289
   C        2.94258        -4.99282        -1.19493
   N        3.98418        -4.91853        -0.38053
   C        4.63939        -3.78969        -0.72421
   C        3.97267        -3.10071        -1.83119
   C        4.69061        -1.86186        -2.16539
   O        4.44207        -1.04849        -3.03135
   C        5.79820        -1.85281        -1.18936
   C        5.73596        -3.05651        -0.33623
   N        6.74586        -3.05869         0.56679
   C        7.40786        -1.94983         0.34074
   C        6.86758        -1.14768        -0.74091
   C        2.87287        -3.86640        -2.14902
   C        1.84547        -3.67709        -3.11387
   C        1.84772        -2.63353        -3.97623
   C        0.87009        -2.34094        -4.98554
   C        1.10950        -1.26864        -5.82734
   C        0.19503        -0.94372        -6.84060
   C        0.21559         0.06583        -7.80136
   C        1.27712         1.09413        -7.96947
   C        1.93442         1.02067        -9.36430
   N        3.28372         1.52981        -9.27278
   C        0.73089         2.50258        -7.66737
   N        1.81735         3.46928        -7.63115
   C       -0.98588        -0.08499        -8.58760
   C       -1.44717         0.58759        -9.65900
   C       -2.73628         0.22107       -10.31618
   C       -3.46802        -0.90847        -9.67560
   C       -2.98143        -1.58910        -8.61895
   C       -1.74316        -1.22399        -8.04537
   C       -1.01338        -1.73854        -6.98825
   C       -1.24256        -2.82193        -6.11147
   C       -0.32818        -3.10977        -5.14847
   C       -3.56224         1.47705       -10.43383
   C       -4.58052         1.77024        -9.61895
   C       -5.36204         2.96962        -9.69393
   N       -5.91446         3.48109        -8.60865
   C       -6.51387         4.62512        -8.99847
   C       -6.33057         4.85703       -10.43913
   C       -7.04607         6.07587       -10.86649
   O       -7.14881         6.53892       -11.97901
   C       -7.62344         6.56237        -9.59980
   C       -7.27570         5.64921        -8.48822
   N       -7.82599         6.07790        -7.32795
   C       -8.48317         7.16892        -7.64283
   C       -8.40561         7.52369        -9.04505
   C       -5.61332         3.78473       -10.90596
   C       -5.24530         3.43746       -12.23768
   C       -5.09075         4.32918       -13.24652
   C       -4.72860         3.88810       -14.54597
   C       -4.41114         4.69185       -15.59500
   C       -4.10360         4.24756       -16.94996
   C       -3.89001         2.97186       -17.40762
   C       -3.60721         2.73126       -18.76884
   N       -3.37968         2.52898       -19.87501
   C       -3.87899         1.81136       -16.61233
   N       -3.83008         0.83690       -16.00557
   C       -4.01875         5.43858       -17.74602
   C       -4.17180         6.58120       -16.97124
   C       -4.06833         7.76571       -17.71772
   C       -3.84393         7.49430       -19.03584
   S       -3.74483         5.80916       -19.39752
   C       -4.37050         6.18878       -15.56663
   O       -4.43898         6.90868       -14.59893
   H        0.93245       -11.22526         0.60310
   H        2.03909       -11.55695         2.95985
   H        1.51032        -6.33045        -2.07615
   H        8.27323        -1.70406         0.93138
   H        7.26195        -0.20933        -1.07767
   H        1.05332        -4.41225        -3.12735
   H        2.67326        -1.93549        -3.92024
   H        2.01273        -0.68971        -5.70328
   H        2.07584         0.88844        -7.25056
   H        1.30873         1.56387       -10.09133
   H        1.98603        -0.02678        -9.68111
   H        3.25374         2.49890        -8.96987
   H        3.76105         1.47125       -10.16412
   H        0.16076         2.45539        -6.72379
   H        0.03781         2.81131        -8.45474
   H        2.43704         3.26223        -6.85348
   H        1.45010         4.40448        -7.49031
   H       -0.91522         1.42426       -10.08702
   H       -2.49392        -0.08366       -11.34858
   H       -4.41593        -1.16926       -10.12073
   H       -3.53114        -2.41715        -8.19654
   H       -2.14096        -3.41203        -6.21581
   H       -0.50732        -3.93607        -4.47897
   H       -3.23741         2.17841       -11.18998
   H       -4.82400         1.11148        -8.79545
   H       -9.01658         7.71799        -6.88624
   H       -8.87630         8.37184        -9.50132
   H       -5.08031         2.38371       -12.43357
   H       -5.22356         5.38730       -13.07523
   H       -4.72005         2.81498       -14.69984
   H       -4.15521         8.75443       -17.30715
   H       -3.72303         8.19765       -19.83662
*
