# ORCA input file
# SCF done       -246.278642163694          0.000619502824
! CAM-B3LYP def2-SVP def2/J RIJCOSX Grid4 TightSCF
%maxcore 5000
%tddft
    Mode sTDDFT
    Ethresh 5.0
    maxcore 5000
end

%pal
  nprocs 6
  end
* xyz 0 1
   C       -1.04039         2.60904        -1.49223
   C        0.29465         2.33839        -1.61463
   C        0.87574         1.71311        -2.73873
   N        1.40019         1.23355        -3.63893
   C        1.22975         2.57987        -0.58334
   N        2.00927         2.69355         0.25062
   C       -2.10047         2.14416        -2.38549
   C       -3.33500         2.23842        -1.71392
   C       -4.51174         1.84211        -2.31326
   C       -4.46291         1.34864        -3.61622
   C       -3.24362         1.28123        -4.29830
   C       -2.05378         1.66180        -3.68315
   C       -3.17957         0.82761        -5.72575
   O       -2.49379        -0.07096        -6.12671
   O       -3.94422         1.60348        -6.49977
   C       -3.95771         1.27664        -7.88388
   C       -5.73935         0.88273        -4.23147
   O       -6.81955         1.34327        -3.97088
   O       -5.54215        -0.13880        -5.06925
   C       -6.70224        -0.66152        -5.70289
   C       -3.12493         2.80925        -0.36282
   O       -3.93907         2.97548         0.51107
   C       -1.68624         3.19818        -0.33613
   C       -1.22877         4.06466         0.60415
   C       -0.05176         4.85507         0.56154
   C        0.63378         5.37173        -0.63062
   N        1.61706         6.18193        -0.37048
   C        1.69179         6.24994         0.98814
   C        0.64650         5.42873         1.60195
   C        0.69428         5.54194         3.03933
   S       -0.34499         4.82702         4.09480
   C        1.77659         6.45978         3.28790
   C        2.36625         6.88416         2.00348
   N        3.34088         7.81260         2.20336
   C        3.36234         8.02341         3.48842
   C        2.40399         7.22087         4.25233
   C        2.24103         7.28205         5.67716
   C        2.51167         8.46484         6.34423
   C        2.29023         8.55670         7.72607
   C        2.42580         9.61795         8.62272
   C        2.83992        11.03383         8.42963
   C        3.79465        11.29603         7.25576
   N        4.81989        10.26911         7.16715
   C        1.58696        11.93208         8.27495
   N        1.99106        13.31897         8.19399
   C        2.02126         9.11681         9.91711
   C        1.88765         9.74481        11.10119
   C        1.43778         9.01287        12.31930
   C        1.18215         7.55892        12.11764
   C        1.27362         6.95879        10.91404
   C        1.67114         7.70162         9.77798
   C        1.82354         7.37532         8.44008
   C        1.59006         6.17388         7.73890
   C        1.78143         6.13574         6.39311
   C        2.46357         9.34720        13.37182
   C        3.37479         8.51283        13.87864
   C        4.38189         8.95996        14.79588
   C        5.16623         8.08344        15.66364
   N        6.02860         8.70270        16.42231
   C        5.90603        10.01906        16.10974
   C        4.85397        10.22094        15.09045
   C        4.80356        11.61448        14.72183
   S        3.91550        12.36258        13.55582
   C        5.78889        12.24253        15.56126
   C        6.46457        11.24190        16.39493
   N        7.41769        11.83038        17.16710
   C        7.41380        13.08963        16.83631
   C        6.41872        13.44220        15.81861
   C        6.12257        14.73599        15.31699
   C        6.96770        15.79372        15.20788
   C        8.41096        15.87696        15.30824
   C        9.29763        14.88378        14.99284
   C       10.69975        15.03378        15.04890
   N       11.84365        15.10209        15.09925
   C        8.90513        13.63118        14.47121
   N        8.63656        12.63505        13.96896
   C        8.74463        17.27979        15.55010
   C        7.58531        18.06001        15.37303
   C        6.43430        17.17768        15.06975
   O        5.29859        17.49644        14.81517
   C        7.61221        19.43583        15.49024
   C        8.82054        20.04642        15.80649
   C        9.97161        19.27557        16.00110
   C        9.94539        17.88758        15.87039
   C       11.22623        19.98880        16.37235
   O       11.25656        21.14463        16.71687
   O       12.29913        19.20765        16.28799
   C       13.54376        19.81270        16.61343
   C        8.90781        21.54865        15.86819
   O        9.21083        22.22855        14.92605
   O        8.51720        22.00051        17.05518
   C        8.61990        23.40707        17.24566
   H       -5.45515         1.90866        -1.79299
   H       -1.12826         1.58803        -4.23260
   H       -2.94826         1.33452        -8.29556
   H       -4.60856         2.00465        -8.36095
   H       -4.33828         0.26357        -8.02679
   H       -7.11862         0.07570        -6.39254
   H       -7.45895        -0.91196        -4.95691
   H       -6.38083        -1.55126        -6.23797
   H       -1.88304         4.22958         1.45594
   H        0.34626         5.17376        -1.64856
   H        4.07631         8.70546         3.91625
   H        2.85508         9.32245         5.79520
   H        3.34917        11.35163         9.34850
   H        4.19530        12.31171         7.39326
   H        3.23573        11.30323         6.31648
   H        5.34558        10.22162         8.03392
   H        5.47374        10.49247         6.42475
   H        0.89913        11.71795         9.11059
   H        1.07723        11.66922         7.34427
   H        2.34412        13.64670         9.08644
   H        1.21767        13.91139         7.91937
   H        2.12929        10.79008        11.23416
   H        0.49351         9.47553        12.65347
   H        0.88284         7.00607        12.99533
   H        1.04991         5.90817        10.80255
   H        1.25417         5.29848         8.27379
   H        1.60308         5.22705         5.84145
   H        2.47224        10.38566        13.66967
   H        3.38184         7.46159        13.62350
   H        5.05971         7.01357        15.71583
   H        8.05773        13.78801        17.34260
   H        5.08747        14.92470        15.04786
   H        6.71513        20.01501        15.33469
   H       10.84998        17.32401        16.03123
   H       13.54068        20.14922        17.65223
   H       13.72607        20.67212        15.96531
   H       14.29935        19.04684        16.45935
   H        8.10299        23.93721        16.44362
   H        9.67168        23.69732        17.24661
   H        8.16147        23.61794        18.20811
*
