# ORCA input file
# SCF done       -195.412294614328          0.000485391557
! CAM-B3LYP def2-SVP def2/J RIJCOSX Grid4 TightSCF
%maxcore 5000
%tddft
    Mode sTDDFT
    Ethresh 5.0
    maxcore 5000
end

%pal
  nprocs 6
  end
* xyz 0 1
   C        0.68634         5.86980        -1.49098
   C        1.18458         6.76707        -0.59036
   C        1.80709         7.97769        -0.96077
   N        2.31071         8.97420        -1.22424
   C        1.01891         6.63979         0.80630
   N        0.81881         6.63328         1.93629
   C        0.58850         6.05876        -2.93356
   C       -0.39213         5.15832        -3.44938
   C       -0.70984         5.12782        -4.77813
   C       -0.04421         6.00173        -5.66551
   C        0.94471         6.89499        -5.15798
   C        1.24914         6.91033        -3.77742
   C        1.60692         7.75536        -6.05713
   C        1.30958         7.73571        -7.39266
   C        0.33703         6.85564        -7.89138
   C       -0.32641         6.00834        -7.04627
   C       -0.91654         4.32762        -2.35628
   O       -1.80177         3.50557        -2.38330
   C       -0.05488         4.66207        -1.17609
   C        0.03996         3.77861        -0.15350
   C        1.06955         3.70366         0.82712
   N        2.21325         4.35376         0.69159
   C        2.98225         3.96982         1.73490
   C        2.28119         3.00643         2.58658
   C        3.13345         2.59489         3.70029
   O        2.90229         1.78161         4.57638
   C        4.36016         3.39252         3.48836
   C        4.22591         4.20978         2.26437
   N        5.34697         4.94572         2.05325
   C        6.14070         4.65170         3.05057
   C        5.58502         3.68787         3.98771
   C        1.03658         2.83157         2.02410
   C       -0.06345         2.04526         2.44676
   C        0.02575         1.25113         3.54173
   N       -0.98967         0.49644         4.01649
   C       -0.87088        -0.45017         5.01750
   C        0.29360        -0.92716         5.55164
   S        0.01255        -2.14640         6.72420
   C       -1.68259        -2.02782         6.51822
   C       -2.02283        -1.08456         5.59134
   N       -3.32258        -0.69149         5.25936
   C       -4.40211        -1.49010         5.16615
   C       -4.39770        -2.84917         5.07759
   C       -5.61521        -3.55027         4.97277
   N       -6.79517        -2.94048         5.10020
   C       -7.72273        -3.89421         4.95297
   C       -7.11128        -5.20996         4.69416
   C       -8.15234        -6.25374         4.58936
   O       -8.00713        -7.44629         4.43809
   C       -9.39269        -5.48146         4.75314
   C       -9.09124        -4.05434         4.97363
   N      -10.22926        -3.34301         5.13500
   C      -11.20074        -4.22465         5.03079
   C      -10.75038        -5.57374         4.79580
   C       -5.75612        -5.00366         4.69940
   C       -4.68370        -5.90704         4.46241
   C       -4.83322        -7.11217         3.85652
   C       -3.71807        -7.95526         3.62372
   C       -3.73016        -9.07021         2.84005
   C       -2.63706       -10.00321         2.63389
   C       -1.32889        -9.83291         3.00932
   C       -0.30662       -10.77279         2.76161
   N        0.57144       -11.49342         2.59427
   C       -0.80623        -8.69139         3.65093
   N       -0.30582        -7.78960         4.15740
   C       -3.16502       -11.14691         1.89864
   C       -4.52240       -10.88316         1.55720
   C       -4.90986        -9.55595         2.07067
   O       -5.94899        -8.97191         1.86333
   C       -5.27512       -11.77432         0.84944
   C       -4.69625       -12.99893         0.44745
   C       -3.34145       -13.27494         0.79177
   C       -2.58552       -12.33075         1.52329
   C       -2.77424       -14.50036         0.38580
   C       -3.50732       -15.40891        -0.32763
   C       -4.84101       -15.13555        -0.66663
   C       -5.42282       -13.95654        -0.28686
   H       -1.45686         4.44143        -5.14843
   H        2.01019         7.58606        -3.41971
   H        2.35326         8.43236        -5.66865
   H        1.82269         8.39841        -8.07317
   H        0.11680         6.85236        -8.94831
   H       -1.07616         5.32880        -7.42417
   H       -0.69528         2.98148        -0.15376
   H        7.11344         5.10602         3.12458
   H        6.07697         3.32038         4.86658
   H       -0.98232         2.09329         1.87853
   H        0.94632         1.20652         4.10589
   H       -1.87510         0.53190         3.52654
   H        1.29871        -0.63809         5.32191
   H       -2.34239        -2.62763         7.11134
   H       -3.47629         0.30655         5.20945
   H       -5.35938        -0.98991         5.11008
   H       -3.47041        -3.39948         5.05547
   H      -12.22626        -3.91155         5.12436
   H      -11.38036        -6.43376         4.68319
   H       -3.68849        -5.57963         4.74039
   H       -5.80727        -7.43925         3.52114
   H       -2.79775        -7.68265         4.12644
   H       -6.30129       -11.54753         0.60116
   H       -1.56389       -12.57152         1.77131
   H       -1.74678       -14.70592         0.64835
   H       -3.06345       -16.34393        -0.63516
   H       -5.40486       -15.86387        -1.23021
   H       -6.44928       -13.74027        -0.54466
*
