# ORCA input file
# SCF done       -205.642102507532          0.000943685550
! CAM-B3LYP def2-SVP def2/J RIJCOSX Grid4 TightSCF
%maxcore 5000
%tddft
    Mode sTDDFT
    Ethresh 5.0
    maxcore 5000
end

%pal
  nprocs 6
  end
* xyz 0 1
   C        9.09029         6.07312        -3.17248
   C        9.73156         5.41864        -4.18842
   C       10.63785         4.35417        -3.99250
   N       11.38663         3.48999        -3.89849
   C        9.60444         5.74408        -5.55533
   N        9.53508         5.96463        -6.67976
   C        9.21260         5.78288        -1.75046
   C        8.53739         6.79786        -1.01050
   C        8.47682         6.77503         0.35368
   C        9.07290         5.70268         1.05135
   C        9.73501         4.67532         0.31797
   C        9.80306         4.73662        -1.09135
   C       10.31075         3.60019         1.02448
   C       10.23597         3.54028         2.38926
   C        9.58558         4.55299         3.11011
   C        9.01708         5.61167         2.45557
   C        7.93280         7.75775        -1.94108
   O        7.41919         8.82612        -1.68356
   C        8.15704         7.18316        -3.30333
   C        7.52145         7.62657        -4.41571
   C        6.47087         8.60080        -4.38449
   C        6.40972         9.67789        -5.21482
   C        5.39575        10.58550        -4.71680
   C        5.09078        11.83137        -5.28423
   N        4.83345        12.84991        -5.74547
   C        4.81416        10.04209        -3.60659
   C        5.37257         8.73123        -3.39340
   C        4.89942         7.74996        -2.56120
   C        4.01116         7.94505        -1.39197
   C        4.33533         6.97474        -0.48693
   C        5.24348         6.03751        -1.10702
   C        5.51706         6.45883        -2.37979
   C        5.78894         4.90850        -0.48149
   N        6.27649         4.01339         0.04709
   C        2.95749         8.89258        -1.20235
   C        2.17798         9.35710        -2.20121
   C        1.07941        10.27967        -2.08954
   O        0.52742        10.51663        -3.32664
   C       -0.50144        11.39345        -3.45218
   C       -1.06440        11.65700        -4.66719
   F       -0.70808        11.11677        -5.82851
   S       -2.36367        12.79460        -4.59866
   C        0.65905        10.84259        -0.94062
   S       -0.63088        11.99937        -0.74590
   C       -1.12986        12.14213        -2.42219
   C       -2.16916        12.92889        -2.86097
   C       -2.94743        13.85890        -2.10134
   C       -2.52544        14.58349        -1.02839
   C       -3.55221        15.54927        -0.69510
   C       -3.47450        16.43041         0.39270
   N       -3.40214        17.14190         1.28993
   C       -4.58082        15.44881        -1.59338
   C       -4.30000        14.34317        -2.46294
   C       -5.20431        13.71621        -3.28032
   C       -6.45264        14.28929        -3.83363
   C       -7.14945        13.26231        -4.41220
   C       -6.39881        12.04072        -4.24361
   C       -5.21664        12.31885        -3.60707
   C       -6.83166        10.77553        -4.66688
   N       -7.18591         9.74117        -5.01479
   C       -6.75675        15.67652        -3.88690
   C       -7.97509        16.18609        -4.21400
   C       -8.20169        17.58004        -4.25544
   C       -9.39900        18.16939        -4.54885
   C       -9.68183        19.59279        -4.58655
   C       -8.78632        20.61633        -4.40751
   C       -9.12617        21.98458        -4.46754
   N       -9.33230        23.11349        -4.49835
   C       -7.40742        20.46869        -4.15088
   N       -6.27758        20.43256        -3.94697
   C      -11.10399        19.75574        -4.86716
   C      -11.68733        18.46724        -5.03532
   C      -10.65490        17.43353        -4.85873
   O      -10.80842        16.23289        -4.94754
   C      -13.01466        18.30512        -5.31055
   C      -13.83847        19.44653        -5.42840
   C      -13.26447        20.73941        -5.25664
   C      -11.88574        20.87582        -4.97568
   C      -14.09598        21.87208        -5.37141
   C      -15.43013        21.73611        -5.64340
   C      -15.99388        20.46271        -5.81354
   C      -15.21504        19.34221        -5.70848
   H        7.96226         7.55752         0.89207
   H       10.30764         3.94276        -1.61912
   H       10.80935         2.82250         0.46518
   H       10.67622         2.71063         2.92158
   H        9.53530         4.48891         4.18675
   H        8.51348         6.39344         3.00520
   H        7.83370         7.28521        -5.39462
   H        7.06290         9.89158        -6.04053
   H        4.04835        10.50095        -3.01528
   H        3.92727         6.85539         0.49961
   H        6.09244         5.92499        -3.10878
   H        2.73344         9.14092        -0.17377
   H        2.34865         9.02157        -3.21550
   H        1.13728        10.61139        -0.00691
   H       -1.58073        14.51894        -0.52442
   H       -5.50313        15.99436        -1.55181
   H       -8.08049        13.32653        -4.94243
   H       -4.49571        11.59544        -3.27949
   H       -5.95123        16.36576        -3.66730
   H       -8.80571        15.53130        -4.42736
   H       -7.35251        18.21120        -4.02543
   H      -13.43115        17.31646        -5.43476
   H      -11.48405        21.86860        -4.85037
   H      -13.65726        22.85031        -5.24002
   H      -16.05884        22.60964        -5.72899
   H      -17.04836        20.37405        -6.02796
   H      -15.64356        18.35916        -5.83816
*
