# ORCA input file
# SCF done       -199.647228557176          0.000882262974
! CAM-B3LYP def2-SVP def2/J RIJCOSX Grid4 TightSCF
%maxcore 5000
%tddft
    Mode sTDDFT
    Ethresh 5.0
    maxcore 5000
end

%pal
  nprocs 6
  end
* xyz 0 1
   C        9.03047         7.57052        -0.07163
   C        8.37907         6.37283         0.08304
   C        8.87930         5.29560         0.84666
   N        9.22044         4.38123         1.45092
   C        7.12609         6.02033        -0.46138
   N        6.11334         5.64999        -0.86004
   C       10.31297         7.90877         0.53165
   C       10.63174         9.25502         0.19644
   C       11.77733         9.85741         0.63070
   C       12.67753         9.12526         1.43614
   C       12.37091         7.77431         1.77028
   C       11.17649         7.17834         1.30608
   C       13.27772         7.05007         2.57090
   C       14.43091         7.63165         3.02273
   C       14.73045         8.96257         2.69519
   C       13.87266         9.69358         1.91865
   C        9.56241         9.82426        -0.63942
   O        9.52499        10.95267        -1.08220
   C        8.57054         8.73264        -0.82227
   C        7.45170         8.72975        -1.60160
   C        6.82407         9.75078        -2.36079
   C        6.92778        11.11817        -2.28049
   C        5.89703        11.70804        -3.09749
   C        5.70708        13.08659        -3.27002
   N        5.52911        14.21346        -3.39331
   C        5.12167        10.71168        -3.63856
   C        5.67096         9.45011        -3.23404
   C        5.25671         8.20926        -3.66092
   C        3.90485         7.83400        -4.16185
   C        4.01457         6.59101        -4.72684
   C        5.36803         6.13395        -4.57113
   C        6.09479         7.07953        -3.88024
   C        5.85998         4.91820        -5.06672
   N        6.25964         3.92698        -5.48402
   C        2.68012         8.50679        -3.92660
   C        2.47709         9.49089        -3.01130
   C        1.24545        10.15593        -2.78896
   S        1.21407        11.53920        -1.72591
   C       -0.49372        11.75324        -1.94280
   C       -0.99741        10.77563        -2.81037
   C       -0.01659         9.89575        -3.28783
   C       -2.34151        10.68011        -3.21022
   N       -3.42700        10.57247        -3.56540
   C       -1.14584        12.82432        -1.28754
   C       -2.48849        12.95653        -1.12469
   C       -3.09867        14.05416        -0.45964
   C       -4.24407        14.00189         0.28464
   C       -4.39513        15.25624         0.98224
   C       -5.45826        15.56337         1.84325
   N       -6.32611        15.80674         2.55339
   C       -3.33924        16.07916         0.67798
   C       -2.51501        15.40623        -0.28045
   C       -1.54238        15.97826        -1.06290
   C       -0.78536        17.22264        -0.80141
   C       -0.17657        17.58397        -1.97457
   C       -0.48201        16.59515        -2.97788
   C       -1.25482        15.60741        -2.41903
   C       -0.05398        16.64978        -4.31253
   N        0.29817        16.68862        -5.40375
   C       -0.55075        17.82720         0.46188
   C       -0.71518        17.20364         1.65933
   C       -0.45647        17.84271         2.89185
   C       -0.64105        17.25287         4.11089
   C       -0.36781        17.83617         5.41205
   C        0.08960        19.10339         5.66769
   C        0.34218        19.60806         6.96114
   N        0.57145        20.08218         7.98115
   C        0.37323        20.08840         4.69887
   N        0.62532        20.94292         3.97388
   C       -0.66448        16.82656         6.42201
   C       -1.13662        15.65194         5.76904
   C       -1.15527        15.87183         4.31543
   O       -1.51852        15.07924         3.46778
   C       -1.49091        14.53158         6.46458
   C       -1.38231        14.53154         7.87281
   C       -0.90971        15.70193         8.53419
   C       -0.55497        16.84871         7.78748
   C       -0.80145        15.69077         9.93966
   C       -1.14162        14.57738        10.65888
   C       -1.60650        13.42552        10.00670
   C       -1.72505        13.40321         8.64341
   H       11.99275        10.88116         0.36271
   H       10.97703         6.15383         1.57605
   H       13.04196         6.02611         2.82105
   H       15.11900         7.06905         3.63557
   H       15.64455         9.40563         3.06099
   H       14.09826        10.71850         1.66304
   H        6.92072         7.78867        -1.64765
   H        7.63497        11.67688        -1.69899
   H        4.32490        10.84229        -4.34629
   H        3.22530         6.01079        -5.16651
   H        7.15210         7.03653        -3.70112
   H        1.83604         8.13453        -4.49287
   H        3.29357         9.81209        -2.38035
   H       -0.23866         9.08780        -3.96148
   H       -0.48724        13.56174        -0.84662
   H       -3.14727        12.15332        -1.42621
   H       -4.90462        13.16237         0.39342
   H       -3.22412        17.09805         0.99305
   H        0.46527        18.43037        -2.13285
   H       -1.69721        14.78265        -2.94387
   H       -0.14299        18.83139         0.44113
   H       -1.03881        16.17448         1.69487
   H       -0.09483        18.86185         2.84650
   H       -1.84808        13.65481         5.94488
   H       -0.20138        17.71742         8.31939
   H       -0.44341        16.58009        10.43722
   H       -1.05438        14.57826        11.73498
   H       -1.87033        12.55603        10.58993
   H       -2.08294        12.51943         8.13577
*
