# ORCA input file
# SCF done       -139.355246505179          0.000613256876
! CAM-B3LYP def2-SVP def2/J RIJCOSX Grid4 TightSCF
%maxcore 5000
%tddft
    Mode sTDDFT
    Ethresh 5.0
    maxcore 5000
end

%pal
  nprocs 6
  end
* xyz 0 1
   C       -4.81516        -0.07121        -3.59383
   S       -3.82066         1.05546        -2.78091
   C       -5.19136         2.06652        -2.42222
   C       -6.36641         1.52612        -2.92408
   C       -6.13378         0.29026        -3.59815
   C       -7.19799        -0.50111        -4.22253
   O       -6.98909        -1.55132        -4.79942
   C       -8.55313         0.08150        -4.09066
   C       -9.62689        -0.60848        -4.64758
   C      -10.91345        -0.11222        -4.55097
   C      -11.14339         1.08707        -3.89269
   C      -10.08610         1.78252        -3.33705
   C       -8.78430         1.29422        -3.42687
   C       -7.70019         2.09456        -2.80963
   O       -7.94101         3.15531        -2.25101
   C       -4.91663         3.25349        -1.69353
   S       -6.06471         4.48605        -1.21973
   C       -4.68022         5.30269        -0.50097
   N       -3.56175         4.63783        -0.65622
   N       -3.69547         3.52223        -1.30909
   C       -4.75595         6.54922         0.17051
   C       -5.90533         7.25271         0.29783
   C       -6.04332         8.50822         0.94006
   N       -7.26774         9.14832         0.96722
   C       -7.12591        10.32821         1.62124
   C       -7.79984        11.47375         2.03474
   C       -6.85204        12.26515         2.69055
   N       -5.63121        11.61934         2.67894
   C       -5.77145        10.43513         2.02810
   C       -5.09417         9.29740         1.60030
   C       -6.99311        13.54235         3.30041
   C       -8.13274        14.26694         3.30997
   C       -8.30529        15.56228         3.90399
   C       -7.32666        16.27362         4.62017
   N       -7.54815        17.44947         5.15787
   C       -8.76229        17.97253         5.01149
   N       -9.75267        17.42347         4.30567
   C       -9.52670        16.24503         3.77421
   C       -9.03614        19.26160         5.60959
   S      -10.10460        20.33904         4.77417
   C       -9.87336        21.55072         5.95516
   C       -9.02581        21.15504         6.95418
   C       -8.54878        19.82410         6.76941
   C       -7.76431        19.14258         7.80738
   O       -7.59379        17.94161         7.85449
   C       -7.23832        20.04680         8.86426
   C       -6.31950        19.52309         9.76993
   C       -5.80163        20.30452        10.78622
   C       -6.20553        21.62493        10.91872
   C       -7.12477        22.15506        10.03302
   C       -7.64588        21.38102         8.99901
   C       -8.62964        22.00350         8.08288
   O       -9.05538        23.13129         8.24442
   H       -4.39955        -0.95525        -4.03683
   H       -9.42236        -1.53992        -5.15449
   H      -11.73673        -0.65785        -4.98704
   H      -12.14657         1.47854        -3.81362
   H      -10.24366         2.71811        -2.82094
   H       -3.82448         6.91665         0.57266
   H       -6.81044         6.83840        -0.13163
   H       -8.10891         8.78327         0.55480
   H       -8.83294        11.71635         1.89281
   H       -4.78911        11.98340         3.09004
   H       -4.06134         9.05061         1.73642
   H       -6.10195        13.93635         3.77139
   H       -9.01116        13.86502         2.82358
   H       -6.32660        15.88596         4.76036
   H      -10.34646        15.81528         3.21057
   H      -10.36117        22.50232         5.87240
   H       -6.02470        18.49063         9.65360
   H       -5.08610        19.88497        11.47767
   H       -5.80606        22.23737        11.71321
   H       -7.46064        23.17788        10.12003
*
