# ORCA input file
# SCF done       -220.923158303757          0.000571938350
! CAM-B3LYP def2-SVP def2/J RIJCOSX Grid4 TightSCF
%maxcore 5000
%tddft
    Mode sTDDFT
    Ethresh 5.0
    maxcore 5000
end

%pal
  nprocs 6
  end
* xyz 0 1
   C       -5.75559        -4.12751        -1.92934
   O       -5.22691        -5.21979        -1.97389
   C       -6.94194        -3.67981        -2.68162
   C       -7.17998        -2.31942        -2.41266
   C       -8.27527        -1.68576        -2.97320
   C       -9.11443        -2.42425        -3.80031
   C       -8.86585        -3.77279        -4.06688
   C       -7.76996        -4.41375        -3.50334
  Br      -10.01968        -4.74579        -5.19830
  Br      -10.61245        -1.56996        -4.56790
   C       -6.13802        -1.82638        -1.51938
   C       -5.89453        -0.51528        -1.21440
   C       -6.65553         0.57423        -1.69288
   N       -7.20638         1.51175        -2.05777
   C       -4.79041        -0.04745        -0.47328
   N       -3.91510         0.44721         0.08204
   C       -5.34488        -2.96977        -1.11529
   C       -4.46246        -3.00362        -0.07336
   C       -3.69067        -4.07382         0.41102
   S       -3.47778        -5.67938        -0.29042
   C       -2.93324        -3.98984         1.57084
   C       -2.66570        -2.97624         2.60878
   O       -3.10703        -1.85435         2.71295
   N       -1.78507        -3.58193         3.48275
   C       -1.21180        -2.92282         4.64082
   C       -2.00557        -3.20562         5.90934
   C       -1.47737        -4.90190         3.13699
   O       -0.75643        -5.63190         3.76837
   C       -2.21542        -5.14266         1.89000
   C       -2.37644        -6.17864         0.98062
   C       -1.84925        -7.47705         1.12984
   C       -2.06515        -8.53227         0.30115
   C       -1.75584        -9.87098         0.70319
   C       -1.97597       -10.37156         1.98773
   C       -1.51373       -11.72787         2.05384
   C       -1.05667       -12.08002         0.82608
   C       -1.17478       -10.95092        -0.06844
   C       -0.71623       -10.93406        -1.36702
   C       -0.61295        -9.75305        -2.24683
   C       -0.11677       -10.14521        -3.42555
   C        0.10877       -11.59658        -3.36802
   C       -0.23994       -12.03921        -2.11619
   N        0.59369       -12.30174        -4.40275
   N       -2.67019        -9.73472         2.99614
   C       -3.63355        -8.83637         2.73748
   C       -4.08029        -7.90627         3.62582
   C       -4.96645        -6.84149         3.33075
   C       -5.17152        -5.80590         4.29767
   C       -4.68148        -5.86356         5.69391
   O       -3.97750        -6.68300         6.21213
   S       -5.31063        -4.46474         6.62202
   C       -6.18315        -3.80060         5.21431
   O       -6.96182        -2.90032         5.28418
   C       -5.87691        -4.63901         4.03091
   C       -6.42684        -4.36016         2.76766
   C       -6.35927        -5.42858         1.87661
   C       -5.68629        -6.62753         2.11750
   C       -5.95932        -7.47511         0.93777
   O       -5.64262        -8.59584         0.66394
   O       -6.75820        -6.75515         0.06858
   C       -6.98976        -5.50913         0.54671
   O       -7.60190        -4.67262        -0.05632
   C       -7.01762        -3.09431         2.39909
   C       -6.39815        -1.91883         2.62087
   C       -6.96923        -0.68293         2.21684
   C       -6.41765         0.55569         2.24133
   C       -7.12333         1.63034         1.47799
   O       -8.26319         1.59438         1.08161
   C       -6.10751         2.67185         1.25452
   C       -4.92206         2.32377         1.92873
   C       -5.13006         1.07874         2.67259
   C       -4.30627         0.62420         3.66013
   C       -4.53638        -0.44658         4.55038
   N       -4.62641        -1.25504         5.36034
   C       -3.07061         1.22544         3.99549
   N       -2.05557         1.64691         4.32350
   C       -3.80256         3.12862         1.79837
   C       -3.88939         4.26328         1.00208
   C       -5.07323         4.60351         0.34282
   C       -6.19767         3.80027         0.46484
  Br       -5.15502         6.15151        -0.73247
  Br       -2.35933         5.35045         0.81009
   H       -8.50026        -0.64911        -2.77771
   H       -7.57631        -5.45797        -3.69287
   H       -4.33992        -2.10230         0.51802
   H       -1.19718        -1.85061         4.43126
   H       -0.18883        -3.29363         4.74460
   H       -3.00396        -2.78065         5.83492
   H       -1.50323        -2.75018         6.75756
   H       -2.07543        -4.27741         6.08225
   H       -1.27401        -7.61927         2.03630
   H       -2.53938        -8.36960        -0.65841
   H       -1.56603       -12.34654         2.93017
   H       -0.63756       -13.02781         0.55078
   H       -0.85374        -8.75275        -1.94817
   H        0.09896        -9.54087        -4.28672
   H       -0.19639       -13.05390        -1.77485
   H        0.75735       -11.85864        -5.28913
   H        0.69685       -13.29877        -4.33421
   H       -2.37695        -9.88912         3.95427
   H       -4.02280        -8.88729         1.73481
   H       -3.64901        -7.90697         4.61493
   H       -7.95140        -3.13187         1.85362
   H       -5.41822        -1.90985         3.07062
   H       -7.95890        -0.73119         1.77102
   H       -2.86523         2.88606         2.27113
   H       -7.11448         4.03747        -0.05219
*
