# ORCA input file
# SCF done       -168.388920916605          0.000756037048
! CAM-B3LYP def2-SVP def2/J RIJCOSX Grid4 TightSCF
%maxcore 5000
%tddft
    Mode sTDDFT
    Ethresh 5.0
    maxcore 5000
end

%pal
  nprocs 6
  end
* xyz 0 1
   C        2.39778         2.72769         0.03226
   C        1.81814         3.70073         0.78594
   S        2.18615         3.49469         2.45969
   C        3.14697         2.06839         2.13946
  Cl        3.90565         1.21495         3.38956
   C        3.15723         1.79247         0.80547
   C        3.75061         0.77590        -0.07209
   O        4.49436        -0.12145         0.24586
   C        3.30468         1.15990        -1.44862
   C        2.46617         2.34603        -1.36361
   C        1.79340         2.98216        -2.37459
   C        0.99755         4.11941        -2.12209
   N        0.34968         5.04827        -1.93799
   C        1.78386         2.60540        -3.73186
   N        1.72197         2.35179        -4.85026
   C        3.73828         0.60263        -2.61649
   C        4.43991        -0.61370        -2.81539
   C        4.49746        -1.74707        -2.03098
   C        5.27444        -2.73866        -2.69951
   C        5.70968        -2.13538        -3.96845
   C        5.18404        -0.88351        -4.03792
   C        6.50507        -2.73525        -4.95049
   N        7.15649        -3.20748        -5.77089
   C        5.54659        -4.01537        -2.26047
   C        6.35087        -4.99811        -2.89022
   C        6.33689        -6.15144        -2.13390
   C        5.49499        -5.91135        -0.96537
   C        5.01974        -4.64327        -1.02628
   C        4.13671        -4.08321        -0.09406
   N        3.39091        -3.68972         0.68554
   C        6.98041        -7.37495        -2.42809
   N        6.86707        -8.49095        -1.65994
   C        7.57886        -9.51400        -2.19964
   C        8.17067        -9.03035        -3.38021
   C        7.79656        -7.71025        -3.52478
   C        7.61540       -10.81576        -1.60181
   C        6.57865       -11.04310        -0.53992
   O        6.33498       -10.23047         0.33193
   N        5.85652       -12.17221        -0.68779
   C        8.50807       -11.75881        -2.01366
   C        8.76622       -13.03459        -1.44078
   S        9.63149       -14.21749        -2.38745
   C        9.58910       -15.38559        -1.10461
   C        8.94752       -14.84423         0.01487
   C        8.49358       -13.53134        -0.18145
   C        8.73202       -15.51322         1.23284
   N        8.50262       -16.02564         2.23350
   C       10.17519       -16.65745        -1.30746
   C       10.25345       -17.63791        -0.37119
   C       10.87246       -18.88699        -0.60824
   C       11.20707       -19.80175         0.34330
   C       11.47321       -21.22200        -0.04373
   O       11.65769       -21.63890        -1.16173
   C       11.39664       -21.96045         1.22257
   C       11.44467       -23.26068         1.62845
   S       11.26324       -23.36813         3.36382
   C       11.13570       -21.65351         3.52134
   C       11.22033       -21.04173         2.31074
   C       11.22994       -19.68667         1.78966
   C       11.43580       -18.56192         2.54468
   C       11.48432       -18.62941         3.95371
   N       11.52026       -18.67953         5.09893
   C       11.73800       -17.28482         2.03055
   N       12.04564       -16.24295         1.65927
  Cl       11.64740       -24.64660         0.67597
   H        1.20457         4.52489         0.48059
   H        3.53865         1.15123        -3.53062
   H        4.02732        -1.88701        -1.07945
   H        5.30241        -0.18398        -4.84523
   H        6.88035        -4.85474        -3.81020
   H        5.28745        -6.62514        -0.18924
   H        6.40135        -8.57341        -0.76421
   H        8.78377        -9.59166        -4.05608
   H        8.06787        -7.04881        -4.32257
   H        6.04960       -12.84520        -1.40701
   H        5.12666       -12.36662        -0.02083
   H        9.13528       -11.51079        -2.85953
   H        8.01842       -12.95903         0.59496
   H       10.62728       -16.81927        -2.27799
   H        9.81584       -17.47395         0.60149
   H       11.04456       -19.18519        -1.63675
   H       10.99789       -21.22206         4.49290
*
