# ORCA input file
# SCF done       -195.155423679249          0.000389568502
! CAM-B3LYP def2-SVP def2/J RIJCOSX Grid4 TightSCF
%maxcore 5000
%tddft
    Mode sTDDFT
    Ethresh 5.0
    maxcore 5000
end

%pal
  nprocs 6
  end
* xyz 0 1
   C        3.21654         2.95000        -5.25286
   C        2.94837         4.24533        -5.57109
   S        4.27523         4.97129        -6.40170
   C        5.21650         3.50038        -6.31886
  Cl        6.77367         3.41010        -6.97918
   C        4.51428         2.52121        -5.68171
   C        4.73542         1.12493        -5.29198
   O        5.74151         0.46793        -5.42768
   C        3.47138         0.71962        -4.60089
   C        2.54861         1.84599        -4.59401
   C        1.26286         1.87864        -4.12497
   C        0.48286         3.05183        -4.20869
   N       -0.16117         3.99921        -4.26755
   C        0.56961         0.79456        -3.54971
   N       -0.05482        -0.05262        -3.09156
   C        3.29306        -0.46205        -3.94961
   C        4.11355        -1.62176        -4.04056
   C        4.27911        -2.54718        -3.03518
   C        5.17261        -3.57190        -3.48187
   C        5.50272        -3.23632        -4.87605
   C        4.87089        -2.07685        -5.19862
   C        6.29654        -3.98628        -5.75101
   N        6.93843        -4.59314        -6.48599
   C        5.62773        -4.65522        -2.77236
   C        6.51268        -5.67548        -3.22916
   C        6.71004        -6.59935        -2.23263
   C        5.93304        -6.16485        -1.07347
   C        5.28461        -5.01361        -1.38026
   C        4.44840        -4.30268        -0.51254
   N        3.77183        -3.73906         0.22502
   C        7.51594        -7.78955        -2.29931
   C        7.78607        -8.55636        -1.15404
   C        8.53871        -9.71270        -1.20375
   C        9.04116       -10.14913        -2.42635
   C        8.80683        -9.34561        -3.57135
   C        8.05823        -8.19705        -3.53154
   N        9.44707        -9.89894        -4.65851
   C        9.42540        -9.36970        -5.99537
   C       10.14538       -11.02053        -4.29869
   O       10.77772       -11.69238        -5.08446
   C        9.88263       -11.24862        -2.83340
   C       10.30314       -12.34662        -2.13354
   C        9.66891       -12.83956        -0.86039
   O        8.75803       -12.36482        -0.21662
   N       10.26473       -14.03433        -0.55572
   C        9.90803       -14.83448         0.58417
   C       11.25646       -14.33788        -1.46312
   C       11.31229       -13.32854        -2.45660
   C       12.30534       -13.40494        -3.42817
   C       13.16594       -14.48552        -3.43011
   C       13.06792       -15.49975        -2.47292
   C       12.10372       -15.41958        -1.45774
   C       13.94554       -16.63879        -2.50011
   S       15.18656       -16.87854        -3.71667
   C       15.54654       -18.37687        -2.86582
   N       14.77410       -18.55809        -1.83288
   N       13.90288       -17.61241        -1.63617
   C       16.56955       -19.26633        -3.29457
   C       16.92415       -20.35544        -2.57447
   C       17.91748       -21.27410        -3.00013
   C       18.48464       -22.25753        -2.25264
   C       19.18719       -23.39776        -2.92238
   O       19.54368       -23.44538        -4.07417
   C       19.27543       -24.42737        -1.87921
   C       19.69406       -25.72085        -1.78190
   S       19.47572       -26.31480        -0.15230
   C       18.83169       -24.80444         0.38106
   C       18.78189       -23.90535        -0.63700
   C       18.41118       -22.51523        -0.82597
   C       18.24110       -21.60321         0.18085
   C       18.22745       -22.00376         1.53379
   N       18.19762       -22.32851         2.63354
   C       18.19806       -20.20508        -0.00233
   N       18.23327       -19.06189        -0.09259
  Cl       20.34684       -26.70279        -2.99766
   H        2.06964         4.82677        -5.37417
   H        2.46119        -0.54772        -3.26004
   H        3.84965        -2.49371        -2.05338
   H        4.88459        -1.59828        -6.15801
   H        6.94901        -5.68117        -4.20685
   H        5.87018        -6.68210        -0.13472
   H        7.40524        -8.23481        -0.19831
   H        8.71226       -10.27721        -0.30472
   H        7.88207        -7.62423        -4.42631
   H        9.84572        -8.36251        -6.01706
   H        8.40404        -9.34161        -6.37868
   H       10.02831       -10.02936        -6.61807
   H        9.09104       -14.32801         1.09666
   H       10.75727       -14.93697         1.26226
   H        9.57979       -15.82531         0.26595
   H       12.39631       -12.64741        -4.18589
   H       13.92906       -14.55251        -4.19129
   H       12.05410       -16.19474        -0.71157
   H       17.08374       -19.01627        -4.21195
   H       16.39987       -20.54092        -1.64794
   H       18.20741       -21.24973        -4.04537
   H       18.52827       -24.69148         1.40297
*
