# ORCA input file
# SCF done       -206.095187468691          0.000856806402
! CAM-B3LYP def2-SVP def2/J RIJCOSX Grid4 TightSCF
%maxcore 5000
%tddft
    Mode sTDDFT
    Ethresh 5.0
    maxcore 5000
end

%pal
  nprocs 6
  end
* xyz 0 1
   C        1.31504         5.32065         4.77858
   C        0.27922         6.16675         5.06712
   C        0.43680         7.41916         5.69631
   N        0.50161         8.46100         6.17340
   C       -1.08138         5.87832         4.83284
   N       -2.20889         5.70417         4.70426
   C        2.68490         5.47981         5.24942
   C        3.34321         4.21636         5.17766
   C        4.62844         4.05246         5.60910
   C        5.32721         5.16308         6.13310
   C        4.68143         6.43271         6.18864
   C        3.34968         6.57332         5.73754
   C        5.39110         7.53398         6.70962
   C        6.67495         7.38933         7.15987
   C        7.30933         6.13893         7.10660
   C        6.65028         5.04990         6.60392
   C        2.43161         3.22210         4.58738
   O        2.61904         2.04214         4.41124
   C        1.21735         3.99780         4.18396
   C        0.33351         3.45251         3.31743
   C       -0.67839         4.12820         2.56932
   S       -0.37085         5.69832         1.91597
   C       -1.95300         5.79064         1.18584
   C       -2.68050         4.63859         1.44566
   C       -1.93620         3.68502         2.21336
   C       -2.52935         2.40808         2.65075
   O       -3.52256         1.90945         2.19758
   O       -1.82610         1.83073         3.64275
   O       -3.95149         4.36574         1.18943
   C       -4.81565         5.33336         0.64296
   C       -2.25105         6.95374         0.39389
   N       -2.07357         8.23518         0.85185
   C       -1.76817         8.64656         2.20324
   C       -0.31844         9.09823         2.35058
   C       -2.37270         9.19522        -0.14534
   O       -2.32565        10.38957         0.04406
   C       -2.72320         8.39953        -1.29899
   C       -2.65095         7.02778        -0.93054
   C       -2.96603         6.24261        -2.10186
   O       -2.98770         5.04680        -2.30231
   N       -3.28104         7.20043        -3.09265
   C       -3.55395         6.75352        -4.43893
   C       -2.46627         7.16861        -5.42486
   C       -3.12132         8.48836        -2.62504
   C       -3.32385         9.71694        -3.31479
   C       -4.12369         9.93425        -4.38567
   C       -4.27344        11.20045        -5.01701
   S       -3.23109        12.53887        -4.66350
   C       -4.08738        13.56950        -5.79172
   C       -5.20789        12.88988        -6.32795
   C       -5.26530        11.54128        -5.93032
   C       -6.36266        10.63169        -6.37264
   O       -7.52408        10.87296        -6.23921
   O       -5.94574         9.47356        -6.92992
   O       -6.13195        13.32267        -7.18881
   C       -6.61304        14.65678        -7.18656
   C       -3.64385        14.82347        -6.23531
   C       -2.53655        15.55544        -5.88116
   C       -2.12190        16.80167        -6.49512
   C       -2.71175        17.45315        -7.55089
   C       -2.25679        18.67941        -8.07960
   N       -1.94733        19.67515        -8.56013
   C       -3.83471        17.00703        -8.27173
   N       -4.73917        16.70407        -8.91479
   C       -0.91992        17.25595        -5.80205
   C       -0.59913        16.31261        -4.78460
   C       -1.59189        15.22904        -4.80422
   O       -1.62251        14.26162        -4.06385
   C        0.48875        16.46119        -3.97432
   C        1.32945        17.58314        -4.15215
   C        1.01727        18.53247        -5.16732
   C       -0.12098        18.35261        -5.98741
   C        1.86443        19.64558        -5.33978
   C        2.96909        19.81369        -4.54947
   C        3.27559        18.87830        -3.55034
   C        2.47281        17.78681        -3.35540
   H        5.10594         3.08551         5.55445
   H        2.88811         7.54738         5.78139
   H        4.89699         8.49346         6.75160
   H        7.20890         8.23768         7.56084
   H        8.32264         6.04297         7.46656
   H        7.13377         4.08503         6.56113
   H        0.44390         2.38819         3.13791
   H       -2.25764         1.00093         3.90236
   H       -4.65829         5.44206        -0.43122
   H       -4.69196         6.30330         1.13376
   H       -5.82035         4.95385         0.82385
   H       -1.99733         7.82412         2.88486
   H       -2.42443         9.49147         2.43409
   H        0.36872         8.29912         2.07996
   H       -0.13178         9.39088         3.38024
   H       -0.13603         9.95256         1.70418
   H       -4.53777         7.10207        -4.76481
   H       -3.58896         5.66119        -4.37305
   H       -2.37840         8.25097        -5.48631
   H       -2.70102         6.77674        -6.41073
   H       -1.50746         6.76313        -5.11128
   H       -2.81775        10.56083        -2.86177
   H       -4.74211         9.13584        -4.76903
   H       -4.98914         9.45080        -7.06579
   H       -7.68537        14.57776        -7.37038
   H       -6.16203        15.24364        -7.99300
   H       -6.44564        15.14516        -6.22474
   H       -4.24652        15.24673        -7.02464
   H        0.70842        15.72901        -3.21161
   H       -0.32736        19.09101        -6.74541
   H        1.62429        20.36303        -6.11069
   H        3.61302        20.66872        -4.69085
   H        4.15119        19.02621        -2.93607
   H        2.70379        17.06301        -2.58758
*
