# ORCA input file
# SCF done       -202.576416362896          0.000678025954
! CAM-B3LYP def2-SVP def2/J RIJCOSX Grid4 TightSCF
%maxcore 5000
%tddft
    Mode sTDDFT
    Ethresh 5.0
    maxcore 5000
end

%pal
  nprocs 6
  end
* xyz 0 1
   C        5.80215        -7.94797         5.46011
   O        4.91498        -7.83775         4.48946
   C        4.05171        -8.88943         4.58433
   C        4.40816        -9.68260         5.64764
   C        5.55622        -9.07303         6.22736
   C        6.35067        -9.48267         7.36538
   O        7.31951        -8.91485         7.79718
   C        5.84887       -10.79158         8.04600
   F        5.85199       -11.82486         7.18617
   F        6.60032       -11.13725         9.08570
   F        4.58585       -10.66344         8.48694
   C        2.98448        -9.03558         3.64473
   C        2.75732        -8.17917         2.62862
   C        1.71578        -8.32187         1.66809
   S        0.57931        -9.63990         1.69749
   C       -0.21511        -9.07328         0.26118
   C        0.38926        -7.89672        -0.19646
   C        1.46910        -7.48487         0.60144
   C       -0.01696        -7.16096        -1.32161
   N       -0.31800        -6.52620        -2.22947
   C       -1.29711        -9.82191        -0.25901
   C       -1.93533        -9.56215        -1.43210
   C       -2.99292       -10.36941        -1.91322
   N       -3.62878       -10.15060        -3.11076
   C       -3.39687        -9.05717        -4.02525
   C       -4.03673        -7.75988        -3.53867
   C       -4.62363       -11.11206        -3.36275
   O       -5.33412       -11.10464        -4.34496
   C       -4.55976       -12.00009        -2.21790
   C       -3.56565       -11.50778        -1.34001
   C       -3.52368       -12.37625        -0.18391
   O       -2.83484       -12.36166         0.81873
   N       -4.50358       -13.34674        -0.44249
   C       -4.81688       -14.37236         0.52446
   C       -6.10646       -14.06650         1.28234
   C       -5.12104       -13.14412        -1.65456
   C       -6.11274       -14.00882        -2.18684
   C       -6.58943       -13.86665        -3.44605
   C       -7.57274       -14.70040        -4.06992
   C       -8.68096       -15.32670        -3.46026
   C       -9.12407       -15.30487        -2.04422
   O       -8.68282       -14.72843        -1.09701
   O      -10.22809       -16.10957        -1.94635
   C      -10.56937       -16.64004        -3.16558
   O      -11.44535       -17.43747        -3.28404
   C       -9.62398       -16.08033        -4.16656
   C       -9.56426       -16.29705        -5.55602
   C       -8.42799       -15.71594        -6.14971
   C       -7.50060       -14.95471        -5.45402
   C       -6.43694       -14.56875        -6.41307
   O       -5.41182       -13.99100        -6.23999
   O       -6.80946       -15.06349        -7.64608
   C       -7.98398       -15.76247        -7.56584
   O       -8.48649       -16.29211        -8.50861
   C      -10.50246       -17.03085        -6.35785
   C      -11.82954       -17.13205        -6.12880
   C      -12.69262       -17.87839        -6.97794
   O      -12.21022       -18.65176        -7.95599
   C      -13.24519       -19.27116        -8.57177
   C      -14.43077       -18.89664        -7.98391
   C      -14.09359       -17.98973        -6.94917
   C      -14.96727       -17.28046        -6.04617
   O      -14.65078       -16.42934        -5.25242
   C      -16.46582       -17.68864        -6.16966
   F      -16.64223       -19.00829        -5.98806
   F      -17.22934       -17.06018        -5.28226
   F      -16.95541       -17.40311        -7.39025
   C      -12.94314       -20.15788        -9.66558
   C      -13.85040       -20.84732       -10.35127
   H        6.56994        -7.20367         5.54645
   H        3.91406       -10.57681         5.96486
   H        2.35253        -9.89984         3.78992
   H        3.40069        -7.31882         2.50153
   H        2.04896        -6.60235         0.39529
   H       -1.61035       -10.67247         0.33394
   H       -1.62636        -8.72698        -2.04125
   H       -3.85041        -9.35836        -4.97352
   H       -2.32192        -8.92475        -4.17388
   H       -5.10918        -7.89425        -3.42024
   H       -3.86160        -6.97291        -4.26623
   H       -3.61578        -7.44852        -2.58546
   H       -3.97418       -14.39164         1.22161
   H       -4.88024       -15.34224         0.02312
   H       -6.02331       -13.10372         1.78072
   H       -6.27577       -14.83163         2.03486
   H       -6.96344       -14.04066         0.61395
   H       -6.44643       -14.82210        -1.56275
   H       -6.16391       -13.10284        -4.08614
   H      -10.09539       -17.46255        -7.26301
   H      -12.31623       -16.63512        -5.30467
   H      -15.40925       -19.22389        -8.26561
   H      -11.89096       -20.22931        -9.90364
   H      -14.90115       -20.78946       -10.12730
   H      -13.56292       -21.49533       -11.15963
*
