# ORCA input file
# SCF done       -175.590201869107          0.000556454485
! CAM-B3LYP def2-SVP def2/J RIJCOSX Grid4 TightSCF
%maxcore 5000
%tddft
    Mode sTDDFT
    Ethresh 5.0
    maxcore 5000
end

%pal
  nprocs 6
  end
* xyz 0 1
   C        0.92250        -0.02247         1.29119
   C       -0.25511         0.61315         1.63232
   C       -0.96142         1.52778         0.77601
   O       -0.60922         1.86433        -0.32848
   C       -2.28264         2.09909         1.36955
   F       -2.06106         2.77021         2.51335
   F       -2.88428         2.93291         0.52941
   F       -3.15669         1.11994         1.66039
   S       -0.77410         0.15845         3.22713
   C        0.56763        -0.86763         3.39740
   C        1.40177        -0.87850         2.29751
   C        2.61603        -1.68384         2.19527
   C        2.72959        -2.88864         2.87809
   C        3.87512        -3.66012         2.76532
   N        3.86534        -4.94406         3.41944
   O        3.11935        -5.07564         4.36704
   O        4.56932        -5.81977         2.96551
   C        4.96916        -3.25181         1.98349
   C        4.83212        -2.03690         1.30044
   C        3.68904        -1.27531         1.39610
   C        6.19994        -4.00645         1.93108
   C        6.95894        -4.12965         0.82310
   C        8.15741        -4.90065         0.81309
   N        8.87715        -5.18780        -0.32350
   C        8.61836        -4.70304        -1.65613
   C        9.09260        -3.26279        -1.83900
   C        9.97841        -6.02461        -0.05484
   O       10.75585        -6.39438        -0.91217
   C        9.90472        -6.26066         1.36809
   C        8.78766        -5.53822         1.87219
   C        8.74436        -5.72846         3.30319
   O        8.00682        -5.28823         4.16358
   N        9.83853        -6.56828         3.57442
   C       10.08204        -7.06358         4.90675
   C        9.57363        -8.49248         5.08159
   C       10.52553        -6.90573         2.43055
   C       11.66025        -7.76655         2.41910
   C       12.18651        -8.24396         1.27203
   C       13.33751        -9.10375         1.19932
   C       14.33243        -9.18789         2.13802
   S       15.59403       -10.25616         1.68551
   C       14.80976       -10.62280         0.21370
   C       13.62649        -9.95259         0.07438
   C       12.71838       -10.14763        -1.05854
   O       11.54500        -9.88769        -1.08630
   O       13.37962       -10.71227        -2.11302
   C       12.67900       -10.94355        -3.25109
   C       13.26580       -11.53786        -4.29761
   C       12.60250       -11.80862        -5.54148
   C       13.19198       -12.53095        -6.59125
   C       14.49682       -13.11589        -6.60648
   O       15.31692       -13.09732        -5.71421
   C       14.87205       -13.85034        -7.92956
   F       14.03402       -14.86778        -8.19698
   F       14.83269       -13.02849        -8.99351
   F       16.09917       -14.35815        -7.87202
   S       12.11548       -12.66194        -7.95353
   C       10.91675       -11.77161        -7.13083
   C       11.29638       -11.38653        -5.88269
   H        1.38349         0.12496         0.33163
   H        0.70078        -1.40786         4.31477
   H        1.91702        -3.26687         3.47955
   H        5.66109        -1.68061         0.70866
   H        3.63040        -0.33778         0.86516
   H        6.51357        -4.50855         2.83726
   H        6.63193        -3.69677        -0.11222
   H        7.55182        -4.79486        -1.88121
   H        9.17799        -5.35912        -2.32886
   H        8.59012        -2.59414        -1.14334
   H        8.88806        -2.93209        -2.85365
   H       10.16352        -3.20132        -1.66236
   H        9.53752        -6.39516         5.57980
   H       11.15000        -6.99795         5.13475
   H        8.50325        -8.52824         4.89506
   H        9.76124        -8.82960         6.09733
   H       10.06825        -9.16935         4.38819
   H       12.07733        -8.05677         3.37313
   H       11.71799        -7.99733         0.32975
   H       14.41111        -8.64773         3.06005
   H       15.24412       -11.32592        -0.46868
   H       11.64557       -10.61855        -3.22183
   H       14.29686       -11.84554        -4.21446
   H        9.98146       -11.57410        -7.61793
   H       10.66575       -10.81220        -5.23065
*
