# ORCA input file
# SCF done       -191.370407830613          0.000599328371
! CAM-B3LYP def2-SVP def2/J RIJCOSX Grid4 TightSCF
%maxcore 5000
%tddft
    Mode sTDDFT
    Ethresh 5.0
    maxcore 5000
end

%pal
  nprocs 6
  end
* xyz 0 1
   C        6.13594        -0.49244         2.35840
   S        6.34985         0.89633         1.39718
   C        4.79926         1.53799         1.89926
   C        4.16236         0.65738         2.76527
   C        4.94502        -0.48783         3.03462
   C        4.51312        -1.57121         3.96044
   S        4.04613        -3.08323         2.99908
   C        3.38158        -1.10693         4.87126
   C        2.29424        -0.40891         4.06336
   C        2.82457         0.86456         3.40355
   C        4.46098         2.82652         1.41528
   C        3.35625         3.56339         1.70424
   C        3.17515         4.86950         1.18422
   N        4.00020         5.39686         0.28396
   C        3.46637         6.57909        -0.06299
   C        2.20071         6.82063         0.64761
   C        1.61742         8.11294         0.25513
   O        0.58070         8.61721         0.63062
   C        2.61014         8.62771        -0.70620
   C        3.71557         7.66360        -0.87353
   N        4.64104         8.14151        -1.73892
   C        4.19144         9.32027        -2.10357
   C        2.93487         9.68856        -1.49243
   C        2.02357         5.75726         1.48997
   C        0.95822         5.55354         2.42169
   C        1.05882         4.85780         3.57233
   C        0.00134         4.57535         4.50942
   C        0.25635         3.68545         5.53396
   C       -0.75444         3.32921         6.44146
   C       -0.75413         2.44353         7.51790
   C        0.39128         1.61114         7.97341
   C        0.89259         2.07969         9.36955
   N        2.13675         1.49171         9.79715
   C        0.03996         0.11138         7.97614
   N        1.24885        -0.69365         8.08931
   C       -2.07365         2.48354         8.08987
   C       -2.61279         1.87752         9.16740
   C       -4.05660         2.01461         9.48807
   C       -4.78883         3.04821         8.69854
   C       -4.22716         3.68227         7.64799
   C       -2.88548         3.42478         7.29537
   C       -2.06864         3.93228         6.30106
   C       -2.30054         4.85874         5.25971
   C       -1.29979         5.16160         4.39321
   C       -4.68156         0.70361         9.07967
   C       -5.41746        -0.06272         9.89684
   C       -5.98111        -1.30506         9.46965
   N       -5.55929        -1.91129         8.36807
   C       -6.17778        -3.10786         8.34180
   C       -7.04652        -3.28150         9.51406
   C       -7.71307        -4.59216         9.48187
   O       -8.48981        -5.06575        10.28245
   C       -7.19366        -5.17927         8.23067
   C       -6.26250        -4.24354         7.57017
   N       -5.79478        -4.77002         6.41227
   C       -6.37116        -5.94574         6.31516
   C       -7.26077        -6.26084         7.41014
   C       -6.96570        -2.11386        10.22735
   C       -7.67762        -1.76338        11.41104
   C       -7.96880        -0.50098        11.79282
   C       -8.68131        -0.16011        12.97545
   S       -9.34651        -1.37848        14.01970
   C      -10.00628        -0.17891        15.09018
   C       -9.72346         1.09773        14.64765
   C       -8.95629         1.10901        13.46258
   C       -8.50629         2.37598        12.80805
   S       -6.67807         2.39430        12.52153
   C       -8.88653         3.61963        13.60668
   C      -10.27916         3.46730        14.20475
   C      -10.25414         2.35860        15.25384
   C      -10.74172        -0.64819        16.23505
   C      -11.00917         0.02874        17.34974
   H        6.89060        -1.25395         2.38648
   H        5.35868        -1.92727         4.55445
   H        3.24666        -2.46708         2.13106
   H        3.79858        -0.41470         5.60918
   H        2.97124        -1.96937         5.39974
   H        1.44953        -0.15240         4.70579
   H        1.92237        -1.09265         3.29715
   H        2.92003         1.65412         4.15717
   H        2.10247         1.20204         2.65732
   H        5.18857         3.29023         0.76107
   H        2.56970         3.18091         2.32925
   H        4.74844         9.91988        -2.80274
   H        2.40672        10.60749        -1.65436
   H        0.03615         6.05403         2.15876
   H        2.02462         4.45540         3.85196
   H        1.24273         3.25181         5.63103
   H        1.22062         1.75148         7.26878
   H        0.13526         1.83937        10.11912
   H        1.01245         3.16705         9.34830
   H        2.07200         0.47903         9.73739
   H        2.89879         1.78623         9.19591
   H       -0.54258        -0.11344         7.06667
   H       -0.58843        -0.12438         8.83673
   H        1.00870        -1.67293         8.19670
   H        1.81132        -0.60539         7.24883
   H       -2.05021         1.20933         9.80175
   H       -4.21276         2.16267        10.56206
   H       -5.81336         3.22384         8.98563
   H       -4.78754         4.41058         7.07976
   H       -3.27357         5.31674         5.16162
   H       -1.47513         5.87332         3.60251
   H       -4.53871         0.40609         8.05130
   H       -5.58100         0.23165        10.92330
   H       -6.16390        -6.58276         5.47257
   H       -7.82754        -7.16498         7.51405
   H       -8.04837        -2.59617        11.99652
   H       -7.68324         0.32823        11.16226
   H       -8.91202         2.43473        11.79256
   H       -6.33299         2.20596        13.79279
   H       -8.83132         4.49476        12.95729
   H       -8.17024         3.76388        14.42056
   H      -10.99488         3.21692        13.41879
   H      -10.59146         4.40650        14.66316
   H      -11.25836         2.17899        15.64316
   H       -9.61994         2.66847        16.09106
   H      -11.07039        -1.67707        16.15394
   H      -10.66801         1.03277        17.52300
   H      -11.56970        -0.42822        18.14656
*
