# ORCA input file
# SCF done       -213.568432527230          0.000614555301
! CAM-B3LYP def2-SVP def2/J RIJCOSX Grid4 TightSCF
%maxcore 5000
%tddft
    Mode sTDDFT
    Ethresh 5.0
    maxcore 5000
end

%pal
  nprocs 6
  end
* xyz 0 1
   C       -3.50368        10.27706        -1.38381
   S       -2.77320         8.98025        -0.54981
   C       -1.32830         9.92300        -0.26259
   C       -1.46278        11.19650        -0.79415
   C       -2.70754        11.38639        -1.43718
   C       -3.10919        12.66998        -2.09582
   C       -1.89551        13.57128        -2.32233
   C       -1.05181        13.05630        -3.46890
   O       -1.25024        12.04429        -4.08300
   O       -0.03328        13.88089        -3.74027
   C       -1.03373        13.65922        -1.03926
   O       -1.76601        14.18368         0.03624
   C       -0.43849        12.28346        -0.71024
   C       -0.27499         9.28556         0.44808
   C        1.00187         9.72083         0.57943
   C        2.03621         9.05429         1.29216
   N        3.29508         9.28646         0.94062
   C        4.05089         8.48075         1.70774
   C        3.22504         7.69325         2.63406
   C        4.07718         6.83862         3.47345
   O        3.74913         6.05337         4.34120
   C        5.43386         7.16529         3.00090
   C        5.37370         8.16692         1.92218
   N        6.61880         8.48730         1.49463
   C        7.42921         7.76422         2.23222
   C        6.75749         6.92328         3.19719
   C        1.92412         8.07879         2.40732
   C        0.73235         7.74240         3.11073
   C        0.68534         6.75643         4.03699
   C       -0.45153         6.36544         4.82183
   C       -0.25670         5.44558         5.83438
   C       -1.32575         5.05547         6.65690
   C       -1.37233         4.18108         7.74061
   C       -0.20597         3.42285         8.26803
   C        0.38846         4.08453         9.54872
   N       -0.43738         4.11187        10.72815
   C       -0.49650         1.92547         8.46378
   N       -0.75296         1.33146         7.16660
   C       -2.73837         4.18570         8.21650
   C       -3.33784         3.59561         9.26885
   C       -4.80621         3.71465         9.51321
   C       -5.52198         4.63522         8.58096
   C       -4.90232         5.26566         7.56572
   C       -3.51909         5.07868         7.34075
   C       -2.64811         5.60858         6.41089
   C       -2.82987         6.52763         5.35069
   C       -1.76621         6.89415         4.59308
   C       -5.34165         2.30189         9.39637
   C       -5.48345         1.68468         8.22028
   C       -5.90637         0.31966         8.07338
   N       -5.37499        -0.44194         7.13702
   C       -5.88527        -1.68004         7.33682
   C       -6.81211        -1.69648         8.47424
   C       -7.35228        -3.04682         8.67546
   O       -8.12072        -3.43804         9.53014
   C       -6.71439        -3.81597         7.58886
   C       -5.82152        -2.94388         6.80199
   N       -5.23817        -3.63950         5.79415
   C       -5.71151        -4.85728         5.90183
   C       -6.64367        -5.03567         6.99599
   C       -6.86762        -0.40315         8.93902
   C       -7.67442         0.20814         9.93757
   C       -8.43260        -0.50469        10.80785
   C       -9.26095        -0.00080        11.84485
   S      -10.36297        -1.12273        12.58876
   C      -10.98516         0.09182        13.65762
   C      -10.35257         1.30748        13.44602
   C       -9.37811         1.25283        12.43479
   C       -8.55498         2.44622        12.06715
   C       -8.54903         3.48811        13.19232
   C       -7.70257         3.03404        14.36354
   O       -8.03056         3.04648        15.51780
   O       -6.48326         2.64046        13.97114
   C       -9.98911         3.80323        13.62970
   O      -10.75832         4.26451        12.54154
   C      -10.67113         2.55816        14.20040
   C      -12.02637        -0.31637        14.56139
   C      -12.54281         0.35666        15.58888
   H       -4.48376        10.15834        -1.80180
   H       -3.84351        13.19466        -1.47678
   H       -3.58410        12.45013        -3.05390
   H       -2.22028        14.58410        -2.57881
   H        0.49281        13.54124        -4.48212
   H       -0.22331        14.37569        -1.20648
   H       -2.41415        13.52746         0.31830
   H       -0.01178        12.32411         0.29546
   H        0.37387        12.07133        -1.41163
   H       -0.54264         8.32113         0.85969
   H        1.34785        10.58573         0.03585
   H        8.49414         7.82755         2.08917
   H        7.23775         6.26511         3.89428
   H       -0.13710         8.34993         2.90642
   H        1.59379         6.20335         4.23668
   H        0.73162         5.04276         5.99914
   H        0.58364         3.47441         7.51275
   H        0.64623         5.11824         9.30341
   H        1.30909         3.55351         9.80375
   H       -1.29018         4.63508        10.56838
   H       -0.67082         3.17527        11.03503
   H       -1.32090         1.77214         9.17932
   H        0.39719         1.44668         8.87690
   H       -1.58660         1.73246         6.74936
   H       -0.89103         0.33050         7.24206
   H       -2.81293         2.95653         9.96378
   H       -4.96865         4.04734        10.54769
   H       -6.58085         4.75426         8.75328
   H       -5.45188         5.92652         6.91119
   H       -3.81378         6.93000         5.15769
   H       -1.90815         7.59373         3.78382
   H       -5.52785         1.77678        10.32237
   H       -5.19145         2.18566         7.30614
   H       -5.39947        -5.62369         5.21364
   H       -7.14285        -5.95044         7.24810
   H       -7.68974         1.28600         9.93565
   H       -8.43646        -1.58357        10.70737
   H       -8.97817         2.90765        11.16953
   H       -7.52812         2.14553        11.85698
   H       -8.07314         4.40260        12.81275
   H       -5.96084         2.35990        14.73962
   H       -9.95899         4.56954        14.42033
   H      -10.40345         5.10327        12.22873
   H      -11.74873         2.73254        14.17606
   H      -10.35607         2.44392        15.23980
   H      -12.40061        -1.31289        14.35798
   H      -12.21518         1.33452        15.88544
   H      -13.32328        -0.08391        16.18512
*
