# ORCA input file
# SCF done       -197.052614931518          0.000308628065
! CAM-B3LYP def2-SVP def2/J RIJCOSX Grid4 TightSCF
%maxcore 5000
%tddft
    Mode sTDDFT
    Ethresh 5.0
    maxcore 5000
end

%pal
  nprocs 6
  end
* xyz 0 1
   C       -6.49029       -14.09484        15.46566
   C       -6.91836       -12.92412        16.07688
   C       -7.41744       -11.80667        15.30644
   N       -7.81912       -10.68794        15.92625
   C       -7.75216       -10.62741        17.23611
   C       -7.25984       -11.73879        18.00312
   N       -6.86137       -12.83977        17.42594
   C       -7.20698       -11.63463        19.41721
   N       -7.18139       -11.50734        20.55523
   C       -8.17261        -9.44560        17.89046
   N       -8.50570        -8.49853        18.44405
   C       -7.49227       -11.85900        13.89308
   C       -7.05327       -13.05508        13.28585
   C       -6.55586       -14.16290        14.07796
   N       -6.19210       -15.19676        13.30924
   S       -6.44960       -14.81118        11.77473
   N       -7.03005       -13.33020        11.98222
   C       -7.98314       -10.74779        13.15595
   N       -8.03596       -10.78823        11.87107
   N       -8.48214        -9.76622        11.18778
   C       -8.51583        -9.79011         9.81323
   C       -8.96826        -8.67555         9.10268
   C       -8.98010        -8.69025         7.72759
   C       -8.54469        -9.81308         7.01011
   C       -8.11447       -10.93033         7.74442
   C       -8.09370       -10.92760         9.11717
   C       -8.49657        -9.87257         5.57063
   C       -8.74365        -8.86172         4.71487
   C       -8.62200        -8.92551         3.27775
   C       -8.49282       -10.11175         2.59138
   C       -8.29563       -10.11668         1.19443
   C       -8.09685       -11.15142         0.28731
   C       -8.08595       -12.63298         0.49072
   C       -6.79019       -13.12997         1.16604
   N       -6.62382       -12.59175         2.50476
   C       -9.33228       -13.13289         1.23726
   N      -10.51905       -12.78228         0.47215
   C       -7.88871       -10.53460        -1.00392
   C       -7.62626       -11.06905        -2.21070
   C       -7.38841       -10.22080        -3.40799
   C       -7.55170        -8.74767        -3.17324
   C       -7.83464        -8.23118        -1.96427
   C       -7.99319        -9.07919        -0.84229
   C       -8.24208        -8.83745         0.49237
   C       -8.42584        -7.63492         1.21447
   C       -8.61396        -7.68464         2.55584
   C       -8.22430       -10.62687        -4.59362
   C       -9.35648       -11.33288        -4.52905
   C      -10.11058       -11.67585        -5.69698
   N      -11.17783       -12.37497        -5.60892
   N      -11.84242       -12.68989        -6.71032
   C      -12.98675       -13.44251        -6.69919
   C      -13.54526       -13.90035        -5.49974
   C      -14.69450       -14.65101        -5.51607
   C      -15.33320       -14.98212        -6.72321
   C      -14.75434       -14.51907        -7.91743
   C      -13.60935       -13.76241        -7.91099
   C      -16.53122       -15.76504        -6.81052
   C      -17.26251       -16.23439        -5.77021
   C      -18.45344       -17.01555        -5.84743
   C      -19.06841       -17.51616        -7.02539
   C      -20.29147       -18.29314        -6.96396
   N      -20.85850       -18.75542        -8.10213
   C      -20.28842       -18.49455        -9.24598
   C      -19.07226       -17.73321        -9.30909
   N      -18.50731       -17.27519        -8.21737
   C      -18.45778       -17.46303       -10.55454
   N      -17.97434       -17.24791       -11.57161
   C      -20.87218       -18.97293       -10.44741
   N      -21.30484       -19.33840       -11.44300
   C      -20.92002       -18.59061        -5.76232
   C      -20.33050       -18.11881        -4.59625
   C      -19.11037       -17.34281        -4.63843
   N      -18.71087       -16.98722        -3.41433
   S      -19.75155       -17.56408        -2.33887
   N      -20.76531       -18.29293        -3.34152
   H       -6.12130       -14.91566        16.05621
   H       -8.30265        -9.87237        13.72787
   H       -8.79790        -8.91503        11.66640
   H       -9.30489        -7.79971         9.63974
   H       -9.33435        -7.81843         7.20051
   H       -7.78395       -11.80965         7.21067
   H       -7.75547       -11.77947         9.68551
   H       -8.18842       -10.83100         5.17348
   H       -9.00812        -7.88786         5.10558
   H       -8.52017       -11.04906         3.12109
   H       -8.11672       -13.09893        -0.49938
   H       -5.94535       -12.88680         0.49833
   H       -6.84886       -14.21878         1.25081
   H       -6.39335       -11.60463         2.45370
   H       -5.85886       -13.06205         2.97582
   H       -9.33412       -12.74139         2.26230
   H       -9.28946       -14.22441         1.29689
   H      -10.59048       -11.77206         0.39538
   H      -11.35243       -13.11738         0.94281
   H       -7.54992       -12.13714        -2.36283
   H       -6.33622       -10.38764        -3.70105
   H       -7.42658        -8.11422        -4.03819
   H       -7.93879        -7.16357        -1.83380
   H       -8.40733        -6.69157         0.68833
   H       -8.74626        -6.77170         3.11924
   H       -7.86739       -10.26772        -5.55049
   H       -9.74903       -11.68665        -3.58715
   H       -9.73451       -11.32884        -6.66874
   H      -11.49018       -12.37503        -7.61895
   H      -13.05191       -13.64908        -4.57462
   H      -15.10736       -14.99525        -4.58109
   H      -15.22583       -14.76500        -8.85759
   H      -13.18105       -13.41294        -8.83992
   H      -16.86903       -15.98554        -7.81276
   H      -16.96881       -16.01108        -4.75330
   H      -21.82933       -19.16617        -5.74976
*
