# ORCA input file
# SCF done       -239.998008216641          0.000572003027
! CAM-B3LYP def2-SVP def2/J RIJCOSX Grid4 TightSCF
%maxcore 5000
%tddft
    Mode sTDDFT
    Ethresh 5.0
    maxcore 5000
end

%pal
  nprocs 6
  end
* xyz 0 1
   C       -2.51124        -2.42002         4.41516
   N       -2.97320        -1.50551         5.19115
   C       -4.31183        -1.40625         5.06885
   C       -4.87981        -2.27887         4.17084
   S       -3.69081        -3.27900         3.45341
   C       -6.34922        -2.15750         4.24007
   C       -6.45594        -0.69184         4.68651
   C       -5.33989        -0.53357         5.76879
   C       -5.66170        -1.18432         7.12652
   C       -6.73900        -0.48743         7.94880
   C       -4.84985         0.91480         5.90045
   C       -3.67324         1.08436         6.85496
   N       -7.87354        -0.45825         4.89453
   C       -8.66733        -1.45666         4.19829
   S       -7.59649        -2.21939         2.91815
   C       -8.43146         0.74533         5.20790
   C       -7.91134         2.01545         4.86593
   C       -6.84549         2.42838         3.93201
   O       -6.19419         1.78302         3.14540
   N       -6.75552         3.82745         4.01441
   C       -7.75281         4.36394         4.81995
   O       -7.94652         5.53159         5.04609
   C       -8.52008         3.19720         5.31300
   C       -9.70404         3.22268         6.02071
   C      -10.26557         1.98672         6.30374
   C       -9.64490         0.78355         5.95475
   C      -10.30159        -0.38405         6.54915
   O       -9.90303        -1.51342         6.63149
   S      -11.85324         0.11661         7.31675
   C      -11.53940         1.85424         7.03242
   O      -12.26499         2.73184         7.39495
   C       -5.79139         4.51001         3.27730
   C       -5.66022         5.83954         3.22818
   C       -4.66452         6.55473         2.45956
   C       -4.81229         7.91862         2.31008
   C       -3.89330         8.66866         1.55064
   C       -3.82229        10.02516         1.22312
   C       -4.63016        11.18085         1.68586
   C       -6.14738        10.98954         1.55591
   N       -6.47366        10.80640         0.15283
   C       -4.20777        11.57772         3.14218
   N       -4.48829        10.63282         4.18300
   C       -2.64255        10.18931         0.40214
   C       -2.14768        11.27544        -0.22154
   C       -0.85326        11.22048        -0.95526
   C       -0.23592         9.86346        -1.04183
   C       -0.78572         8.77348        -0.47009
   C       -1.98923         8.88758         0.26300
   C       -2.76866         7.96727         0.94819
   C       -2.62640         6.57702         1.13145
   C       -3.54937         5.89423         1.86132
   C        0.03817        12.17320        -0.19413
   C        0.54645        13.28859        -0.70125
   C        1.29264        14.24932         0.10252
   C        0.78550        14.76577         1.29641
   C       -0.53400        14.55781         1.93651
   O       -1.45330        13.85811         1.58254
   N       -0.53458        15.37288         3.06999
   C        0.67073        16.08297         3.22046
   O        0.91268        16.83533         4.12578
   C        1.49731        15.70568         2.05753
   C        2.74126        16.17438         1.67953
   C        3.24837        15.67873         0.48358
   C        2.54482        14.74783        -0.28917
   C        3.23447        14.33213        -1.51640
   O        2.86897        13.54217        -2.33930
   S        4.80110        15.20963        -1.62780
   C        4.54663        16.08577        -0.07617
   O        5.33394        16.85975         0.37990
   C       -1.56283        15.53449         3.98847
   C       -2.78625        14.99705         3.89997
   C       -3.80117        15.20801         4.88002
   N       -5.00262        14.71898         4.80176
   C       -5.74890        15.06626         5.86012
   C       -5.11335        15.85277         6.79785
   S       -3.50561        16.19150         6.33418
   C       -6.07143        16.26809         7.83772
   C       -7.06857        15.10749         7.74184
   C       -7.19683        14.79676         6.22516
   C       -8.08944        15.79668         5.47027
   C       -9.57134        15.69290         5.80968
   C       -7.59931        13.33406         5.99877
   C       -7.69660        12.94945         4.52808
   N       -8.18502        15.46028         8.59849
   C       -7.69184        16.28027         9.68989
   S       -5.84012        16.36924         9.64175
   H       -1.47114        -2.66348         4.33772
   H       -6.73076        -2.85055         5.00090
   H       -6.10908        -0.08878         3.83496
   H       -4.73167        -1.21559         7.69600
   H       -5.96723        -2.21952         6.96136
   H       -6.52524         0.57011         8.07794
   H       -6.78964        -0.94423         8.93457
   H       -7.71210        -0.59597         7.48267
   H       -5.67950         1.54880         6.22379
   H       -4.53947         1.25054         4.90888
   H       -3.97105         0.91900         7.88659
   H       -3.28357         2.09681         6.77490
   H       -2.88251         0.38579         6.59705
   H       -9.53666        -1.00607         3.71879
   H       -8.99337        -2.26113         4.86486
   H      -10.17509         4.14314         6.32373
   H       -5.16096         3.82596         2.72634
   H       -6.35610         6.45363         3.78073
   H       -5.66311         8.39667         2.77150
   H       -4.37522        12.03907         1.05895
   H       -6.64441        11.90282         1.89457
   H       -6.49681        10.16244         2.19249
   H       -6.05479         9.95063        -0.19702
   H       -7.47658        10.74537         0.02096
   H       -4.70935        12.51351         3.39900
   H       -3.12925        11.75715         3.13069
   H       -4.03149         9.74253         4.02571
   H       -5.48236        10.48771         4.30336
   H       -2.61867        12.24496        -0.15910
   H       -0.98547        11.62218        -1.96833
   H        0.69241         9.80393        -1.58874
   H       -0.31399         7.80587        -0.56069
   H       -1.78465         6.06614         0.68802
   H       -3.43499         4.83213         2.00625
   H        0.21089        11.90274         0.83779
   H        0.44169        13.52687        -1.75093
   H        3.28842        16.89441         2.26671
   H       -1.27224        16.17422         4.81307
   H       -3.06658        14.37140         3.06759
   H       -6.52716        17.22719         7.56345
   H       -6.53919        14.23050         8.16273
   H       -7.93924        15.64437         4.40021
   H       -7.74689        16.80730         5.70178
   H       -9.97996        14.73209         5.50999
   H      -10.11958        16.47180         5.28445
   H       -9.71967        15.82076         6.87787
   H       -8.55268        13.15018         6.49799
   H       -6.84585        12.70072         6.47454
   H       -8.54604        13.42683         4.04755
   H       -7.82003        11.87234         4.43774
   H       -6.78770        13.24763         4.01394
   H       -8.63599        14.62127         8.94681
   H       -7.98871        15.91558        10.67219
   H       -8.04470        17.30831         9.56332
*
