# ORCA input file
# SCF done       -187.670024773014          0.000670683666
! CAM-B3LYP def2-SVP def2/J RIJCOSX Grid4 TightSCF
%maxcore 5000
%tddft
    Mode sTDDFT
    Ethresh 5.0
    maxcore 5000
end

%pal
  nprocs 6
  end
* xyz 0 1
   C        3.10352       -15.08752        -6.22280
   S        1.54905       -14.66566        -5.60009
   C        1.99999       -12.99714        -5.51494
   O        1.14053       -12.03700        -5.14303
   C        3.27681       -12.78994        -5.97646
   C        3.89432       -14.00723        -6.38561
   C        3.91422       -11.48380        -5.99055
   C        3.95342       -10.67539        -4.85113
   C        3.45346       -10.93637        -3.48432
   O        2.90061       -11.90258        -3.02676
   N        3.77608        -9.79262        -2.73300
   C        4.45838        -8.83896        -3.48700
   O        4.86148        -7.77300        -3.09954
   C        4.57805        -9.42504        -4.84470
   C        5.20460        -8.90727        -5.96172
   C        5.16758        -9.69815        -7.10407
   C        4.53860       -10.94552        -7.13119
   C        4.52274       -11.57776        -8.46081
   O        3.99110       -12.58918        -8.80755
   S        5.43704       -10.53143        -9.61608
   C        5.76904        -9.27427        -8.38264
   O        6.37791        -8.27088        -8.60392
   C        3.41329        -9.71074        -1.39084
   C        3.71262        -8.69991        -0.56878
   C        3.31793        -8.61637         0.82256
   C        2.32386        -9.39584         1.37233
   C        1.98312        -9.24914         2.72925
   C        1.02601        -9.89959         3.50693
   C        0.09622       -10.96364         3.05223
   C        0.37145       -12.29692         3.77346
   N        1.64859       -12.81798         3.31678
   C       -1.38900       -10.53091         3.21086
   N       -2.32631       -11.28003         2.41166
   C        1.12549        -9.34625         4.83942
   C        0.43213        -9.58986         5.96818
   C        0.76757        -8.90736         7.25203
   C        1.87221        -7.91004         7.16633
   C        2.52769        -7.64702         6.01894
   C        2.19413        -8.33996         4.83317
   C        2.70009        -8.28356         3.54315
   C        3.70951        -7.49273         2.95623
   C        3.99411        -7.65357         1.63589
   C        1.04917       -10.03169         8.22214
   C        2.26750       -10.38097         8.61452
   C        2.53396       -11.49602         9.51341
   C        3.36104       -11.32063        10.62163
   C        4.08208       -10.10484        11.05867
   O        4.10172        -9.01718        10.53308
   N        4.75346       -10.46669        12.22610
   C        4.51559       -11.80194        12.58614
   O        4.97577       -12.34356        13.55764
   C        3.61957       -12.34245        11.54380
   C        3.07560       -13.60350        11.40211
   C        2.28256       -13.80880        10.27767
   C        2.01372       -12.79403         9.34576
   C        1.24357       -13.25136         8.18294
   O        0.92038       -12.64427         7.19781
   S        0.83211       -14.98886         8.39093
   C        1.68713       -15.11443         9.96846
   O        1.73673       -16.12065        10.61121
   C        5.58745        -9.67188        13.00967
   C        5.91605        -8.39910        12.75347
   C        6.78521        -7.62076        13.58107
   S        7.15253        -5.97827        13.10519
   C        8.17112        -5.76218        14.49497
   O        8.81737        -4.60899        14.73980
   C        8.21727        -6.88649        15.26702
   C        7.43445        -7.93188        14.74707
   H        3.32150       -16.11554        -6.42816
   H        0.35604       -12.42054        -4.73395
   H        4.90216       -14.05721        -6.75377
   H        5.69261        -7.94591        -5.95763
   H        2.86353       -10.58794        -1.07708
   H        4.30588        -7.87722        -0.93924
   H        1.79222       -10.11162         0.76558
   H        0.27824       -11.14018         1.98621
   H       -0.39415       -13.02735         3.49306
   H        0.32526       -12.15073         4.86102
   H        2.39766       -12.19615         3.60501
   H        1.82437       -13.72807         3.72731
   H       -1.47904        -9.47917         2.92560
   H       -1.69251       -10.62907         4.25466
   H       -2.30993       -12.26464         2.65108
   H       -2.11731       -11.18946         1.42383
   H       -0.36397       -10.31712         6.01328
   H       -0.13776        -8.39308         7.61078
   H        2.12600        -7.40565         8.08600
   H        3.31780        -6.91107         5.99132
   H        4.23828        -6.76611         3.55491
   H        4.75925        -7.05021         1.16983
   H        0.18170       -10.58894         8.54675
   H        3.12772        -9.78725         8.33799
   H        3.26047       -14.39738        12.10780
   H        5.95941       -10.21056        13.86955
   H        5.52220        -7.90542        11.87796
   H        8.63695        -3.95711        14.05294
   H        8.79518        -6.94829        16.16973
   H        7.35307        -8.89089        15.22445
*
