# ORCA input file
# SCF done       -210.167909143691          0.000227620590
! CAM-B3LYP def2-SVP def2/J RIJCOSX Grid4 TightSCF
%maxcore 5000
%tddft
    Mode sTDDFT
    Ethresh 5.0
    maxcore 5000
end

%pal
  nprocs 6
  end
* xyz 0 1
   C       -0.29968         7.37822         6.26221
   C       -1.28681         6.43450         6.10864
   C       -2.64821         6.65678         6.37138
   N       -3.78237         6.77591         6.51774
   C       -1.02489         5.10265         5.72996
   N       -0.83839         3.99444         5.49039
   C       -0.43911         8.64043         6.97797
   C        0.86098         9.08292         7.36201
   C        1.04110        10.21765         8.09699
   C       -0.08756        10.98086         8.47602
   C       -1.38706        10.55287         8.07954
   C       -1.54520         9.36576         7.32675
   C       -2.50144        11.32800         8.45847
   C       -2.34338        12.46824         9.19839
   C       -1.06393        12.88695         9.59128
   C        0.03967        12.15895         9.23725
   C        1.87181         8.14327         6.83410
   O        3.07236         8.17241         6.99776
   C        1.10713         7.17904         6.00711
   C        1.74098         6.35711         5.12053
   C        1.17605         5.71089         4.00017
   S       -0.20990         6.35721         3.15962
   C       -0.23002         5.02109         2.05213
   C        0.78656         4.12466         2.33396
   C        1.59694         4.52760         3.40973
   C        2.72348         3.71109         3.95196
   C        3.07647         2.56938         3.00406
   C        1.79966         1.86305         2.56979
   C        0.96169         2.77945         1.66812
   O       -0.26677         2.17838         1.33102
   C       -1.27734         4.99032         1.05816
   C       -2.50456         5.52395         1.37388
   C       -3.57302         5.45687         0.45578
   C       -4.89279         5.87095         0.52783
   C       -5.64045         6.71530         1.50920
   C       -5.02401         6.86557         2.90254
   N       -4.75197         5.57283         3.51346
   C       -5.84623         8.12427         0.90542
   N       -6.76889         8.89134         1.72345
   C       -5.53393         5.40915        -0.68890
   C       -6.81864         5.45416        -1.07999
   C       -7.26385         4.87179        -2.38197
   C       -6.16580         4.28469        -3.20719
   C       -4.89034         4.21882        -2.78479
   C       -4.52316         4.75050        -1.52475
   C       -3.34000         4.78085        -0.82066
   C       -2.04706         4.30062        -1.13774
   C       -1.04497         4.41290        -0.23348
   C       -8.08355         5.91525        -3.09395
   C       -7.75121         6.50440        -4.24525
   C       -8.56677         7.49721        -4.88259
   S       -9.93470         8.18250        -4.07837
   C      -10.31379         9.16017        -5.47292
   C       -9.41200         8.90429        -6.51513
   C       -8.41424         7.99083        -6.17345
   C       -7.31098         7.60575        -7.10981
   C       -7.19598         8.62845        -8.23730
   C       -8.56373         8.85501        -8.86677
   C       -9.51659         9.54156        -7.88111
   O      -10.84162         9.54152        -8.37273
   C      -11.32232        10.13348        -5.54108
   C      -12.28503        10.47670        -4.62827
   C      -13.24997        11.54443        -4.81051
   C      -13.18341        12.56008        -5.72902
   C      -14.16185        13.56687        -5.85748
   N      -14.92985        14.40585        -6.01574
   C      -12.11007        12.78648        -6.61694
   N      -11.25676        13.07333        -7.33039
   C      -14.26241        11.40589        -3.76876
   C      -13.86770        10.35049        -2.89729
   C      -12.60773         9.76467        -3.38526
   O      -11.98276         8.85877        -2.86024
   C      -14.60645        10.00134        -1.80459
   C      -15.80358        10.70078        -1.53109
   C      -16.21216        11.74946        -2.40407
   C      -15.42192        12.09203        -3.52620
   C      -17.41080        12.43621        -2.12455
   C      -18.16937        12.10657        -1.03425
   C      -17.76486        11.07519        -0.17415
   C      -16.60703        10.38724        -0.41753
   H        2.03221        10.53155         8.38935
   H       -2.53884         9.06271         7.03372
   H       -3.48516        11.00020         8.15548
   H       -3.20415        13.05365         9.48563
   H       -0.95653        13.78890        10.17531
   H        1.02787        12.47690         9.53649
   H        2.81160         6.24554         5.26206
   H        2.41519         3.30172         4.91924
   H        3.59324         4.34825         4.13242
   H        3.74591         1.86910         3.50521
   H        3.59352         2.96086         2.12497
   H        1.20937         1.59895         3.45118
   H        2.02349         0.94644         2.02253
   H        1.48673         2.90472         0.71096
   H       -0.80295         2.10939         2.13013
   H       -2.67588         5.91813         2.36053
   H       -6.63617         6.26823         1.63677
   H       -5.71637         7.48864         3.48940
   H       -4.08099         7.41460         2.83152
   H       -5.60393         5.02156         3.54720
   H       -4.44771         5.70977         4.47276
   H       -6.17672         8.02053        -0.14200
   H       -4.88561         8.64614         0.90198
   H       -7.70392         8.50147         1.66249
   H       -6.81217         9.85258         1.40576
   H       -7.59229         5.90421        -0.47269
   H       -7.96476         4.05491        -2.13277
   H       -6.46234         3.87297        -4.16033
   H       -4.13033         3.75674        -3.39826
   H       -1.87203         3.84901        -2.10295
   H       -0.05279         4.07191        -0.47544
   H       -9.00084         6.20209        -2.59600
   H       -6.84021         6.22385        -4.75536
   H       -7.52060         6.61626        -7.52973
   H       -6.36690         7.53781        -6.56552
   H       -6.49146         8.27121        -8.98958
   H       -6.81872         9.57269        -7.84002
   H       -8.99193         7.89024        -9.15731
   H       -8.48435         9.46953        -9.76394
   H       -9.25725        10.60560        -7.79808
   H      -11.11085         8.63076        -8.54057
   H      -11.33343        10.67370        -6.47942
   H      -14.28257         9.20113        -1.15556
   H      -15.75940        12.88907        -4.16955
   H      -17.71726        13.23096        -2.78880
   H      -19.08549        12.63967        -0.82837
   H      -18.37491        10.82819         0.68194
   H      -16.29046         9.59156         0.24117
*
