# ORCA input file
# SCF done       -223.850905056521          0.000541178382
! CAM-B3LYP def2-SVP def2/J RIJCOSX Grid4 TightSCF
%maxcore 5000
%tddft
    Mode sTDDFT
    Ethresh 5.0
    maxcore 5000
end

%pal
  nprocs 6
  end
* xyz 0 1
   C       -6.13470        -8.17354        -0.88954
   C       -7.36275        -8.78743        -1.07310
   C       -7.47174        -9.76835        -2.05896
   C       -8.71897       -10.40890        -2.27021
   N       -9.72803       -10.92366        -2.43388
   C       -6.36475       -10.13487        -2.85022
   C       -6.50545       -11.14408        -3.83408
   N       -6.59922       -11.96075        -4.63095
   C       -5.13309        -9.50382        -2.67128
   C       -5.03582        -8.53060        -1.69819
   C       -3.86499        -7.69599        -1.34977
   O       -2.74712        -7.75620        -1.78859
   C       -4.39811        -6.69469        -0.37109
   C       -5.71513        -7.14719         0.05808
   C       -6.35414        -6.81117         1.21579
   C       -7.61832        -7.31890         1.59354
   N       -8.64758        -7.69327         1.93130
   C       -5.79582        -5.96947         2.20091
   N       -5.36264        -5.31938         3.04132
   C       -3.75479        -5.52941        -0.18656
   C       -4.25090        -4.33199         0.46644
   C       -3.47949        -3.69969         1.44151
   C       -2.16122        -4.11261         1.98144
   O       -1.46573        -5.02861         1.62395
   N       -1.87984        -3.20989         3.00547
   C       -2.89288        -2.24973         3.16615
   O       -2.87480        -1.36455         3.97515
   C       -3.91896        -2.58084         2.14770
   C       -5.13796        -1.98532         1.88326
   C       -5.89639        -2.57151         0.87653
   C       -5.48783        -3.71712         0.18818
   C       -6.44748        -4.16659        -0.83796
   O       -6.36129        -5.11107        -1.57336
   S       -7.86520        -3.07482        -0.85006
   C       -7.20969        -2.03551         0.46527
   O       -7.77643        -1.08107         0.89603
   C       -0.77661        -3.21835         3.85035
   C        0.32809        -3.95841         3.67070
   C        1.42955        -3.97512         4.57834
   N        2.60268        -4.60740         4.23494
   C        3.47642        -4.49135         5.27048
   C        4.75623        -4.80163         5.70340
   C        4.86264        -4.28407         7.00663
   N        3.67485        -3.67194         7.35261
   C        2.81783        -3.77493         6.30853
   C        1.53961        -3.44473         5.86759
   C        5.98962        -4.36725         7.85282
   C        6.00552        -4.00502         9.16233
   C        7.10918        -4.13318        10.05692
   C        6.86321        -4.41343        11.41903
   C        5.57586        -4.56873        12.10760
   O        4.44579        -4.43642        11.70877
   N        5.88747        -4.93528        13.43572
   C        7.27250        -5.00546        13.65032
   O        7.81036        -5.27214        14.68765
   C        7.87957        -4.66913        12.33965
   C        9.21507        -4.63174        11.98759
   C        9.48283        -4.27611        10.66945
   C        8.48755        -4.01561         9.72894
   C        9.01433        -3.48389         8.45920
   O        8.42541        -3.02178         7.52821
   S       10.82141        -3.52658         8.49713
   C       10.87150        -4.12346        10.17969
   O       11.87717        -4.34399        10.78220
   C        4.88440        -5.31990        14.29321
   C        5.04265        -5.83880        15.52451
   C        3.96123        -6.29434        16.32890
   C        2.71987        -6.72971        15.97950
   C        1.69496        -6.83772        17.05747
   O        1.88537        -6.77935        18.24753
   C        0.39976        -6.97995        16.35501
   C       -0.87139        -6.99887        16.88928
   C       -1.95211        -7.09917        16.01183
   C       -1.73061        -7.16447        14.62261
   C       -0.43868        -7.15544        14.09399
   C        0.63119        -7.07437        14.96937
   C        2.07696        -7.07777        14.72541
   C        2.65118        -7.56401        13.58217
   C        4.03166        -7.76777        13.38144
   N        5.13458        -7.97305        13.13937
   C        1.92166        -7.98202        12.44680
   N        1.38845        -8.32494        11.49075
   C       -2.83888        -7.23526        13.74189
   N       -3.72616        -7.28611        13.02046
   C       -3.27476        -7.12573        16.51695
   N       -4.33762        -7.14610        16.94215
   H       -8.23152        -8.52147        -0.49172
   H       -4.28068        -9.76802        -3.27866
   H       -2.74242        -5.47246        -0.57417
   H       -5.49282        -1.12144         2.42211
   H       -0.89293        -2.53685         4.68091
   H        0.41357        -4.59241         2.80041
   H        2.76778        -5.06388         3.35400
   H        5.53078        -5.32752         5.18282
   H        3.49606        -3.22092         8.23281
   H        0.77497        -2.91409         6.39615
   H        6.86761        -4.80066         7.39910
   H        5.08103        -3.70944         9.63742
   H       10.00841        -4.84371        12.68547
   H        3.90316        -5.14428        13.86634
   H        6.02864        -5.88908        15.96189
   H        4.13173        -6.27181        17.40161
   H       -1.02495        -6.93641        17.95585
   H       -0.30812        -7.19891        13.02441
*
