# ORCA input file
# SCF done       -168.657122279562          0.000585181520
! CAM-B3LYP def2-SVP def2/J RIJCOSX Grid4 TightSCF
%maxcore 5000
%tddft
    Mode sTDDFT
    Ethresh 5.0
    maxcore 5000
end

%pal
  nprocs 6
  end
* xyz 0 1
   C       10.02988        -7.76843        -4.96332
   N        9.72092        -6.46586        -4.75791
   C       10.86385        -5.71285        -4.80854
   C       11.91949        -6.57483        -5.05312
   C       11.38632        -7.86738        -5.14938
   C       10.85994        -4.33078        -4.63199
   C       10.86138        -3.12799        -4.47725
   C       10.85731        -1.74509        -4.29930
   C       11.97897        -0.99969        -4.33720
   C       12.06741         0.43040        -4.15759
   C       10.94338         1.24212        -3.93983
   C       11.10422         2.59443        -3.76962
   C       12.38121         3.18041        -3.81232
   C       13.50120         2.39160        -4.03069
   C       13.33314         1.03246        -4.20022
   C       12.24369         4.60454        -3.59431
   C       10.88039         4.89701        -3.41188
   C       10.04520         3.64351        -3.52156
   C        9.26954         3.36886        -2.22045
   C       10.17911         3.26249        -1.00255
   C        9.05851         3.73485        -4.70081
   C        9.74971         4.01502        -6.02974
   C       10.46639         6.18216        -3.16955
   C       11.42005         7.20721        -3.10772
   C       12.77594         6.91043        -3.30184
   C       13.19194         5.61756        -3.54268
   C       11.02926         8.56015        -2.83341
   S        9.32491         8.96669        -2.48123
   C        9.82698        10.59180        -2.27753
   C       11.20098        10.70673        -2.48960
   N       11.83808         9.57656        -2.79207
   C       11.65163        12.12232        -2.30800
   C       10.35671        12.79222        -1.94908
   C        9.31345        11.86657        -1.94602
   S        7.81185        12.57824        -1.52709
   C        8.58619        14.14372        -1.34321
   C        9.94199        14.07656        -1.60976
   C        7.77915        15.24556        -0.93991
   C        8.22566        16.50038        -0.72803
   C        7.43682        17.62619        -0.29001
   C        6.05720        17.54103        -0.04313
   C        5.37411        18.64967         0.38849
   C        6.03561        19.87403         0.58713
   C        7.39696        19.97578         0.34226
   C        8.07897        18.85719        -0.09162
   C        5.06984        20.84967         1.04513
   C        3.81136        20.22991         1.12796
   C        3.90431        18.77932         0.71579
   C        3.50162        17.84229         1.86943
   C        4.32688        18.06902         3.13021
   C        3.02690        18.48763        -0.51538
   C        3.36760        19.37510        -1.70635
   C        2.70688        20.93410         1.53723
   C        2.83317        22.28851         1.88094
   C        4.09489        22.89097         1.79917
   C        5.20833        22.18627         1.38476
   C        1.66994        23.03003         2.31354
   N        1.64532        24.38960         2.41811
   C        0.41889        24.80776         2.84958
   C       -0.36466        23.67830         3.03711
   C        0.41605        22.57307         2.69998
   C        0.10987        26.15355         3.04065
   C       -0.16043        27.32178         3.21012
   C       -0.46401        28.67716         3.40406
   C       -1.66193        29.11917         3.78157
   H        9.27487        -8.53009        -4.96340
   H        8.79982        -6.09529        -4.59264
   H       12.94883        -6.29171        -5.14847
   H       11.93571        -8.76907        -5.33427
   H        9.88545        -1.30195        -4.12283
   H       12.91867        -1.50844        -4.51442
   H        9.95611         0.80695        -3.90549
   H       14.48727         2.83063        -4.06622
   H       14.19844         0.40682        -4.36882
   H        8.70857         2.43884        -2.33628
   H        8.54964         4.17541        -2.06595
   H       10.89102         2.44921        -1.12477
   H        9.58855         3.07271        -0.10914
   H       10.73549         4.18595        -0.85796
   H        8.33812         4.52885        -4.49250
   H        8.50809         2.79399        -4.77031
   H       10.28451         4.96149        -5.99201
   H        9.01532         4.06608        -6.83048
   H       10.46270         3.22793        -6.26538
   H        9.42106         6.41548        -3.02443
   H       13.48523         7.72141        -3.25177
   H       14.23952         5.39868        -3.68582
   H       12.08701        12.52767        -3.22337
   H       12.39771        12.21152        -1.51637
   H       10.59338        14.92927        -1.55332
   H        6.73480        15.00815        -0.79240
   H        9.27611        16.70878        -0.88305
   H        5.53586        16.60793        -0.19065
   H        7.91648        20.91128         0.48914
   H        9.14088        18.92466        -0.28336
   H        3.62217        16.80832         1.53895
   H        2.44468        17.99956         2.09506
   H        5.38318        17.90035         2.93250
   H        4.00938        17.38501         3.91406
   H        4.20391        19.08786         3.49088
   H        1.97988        18.63483        -0.24165
   H        3.15460        17.43987        -0.79614
   H        3.22601        20.42404        -1.45545
   H        2.72566        19.13267        -2.55028
   H        4.40283        19.23126        -2.00795
   H        1.73933        20.45976         1.58850
   H        4.21640        23.92749         2.08060
   H        6.17131        22.67260         1.33172
   H        2.40090        25.00901         2.17890
   H       -1.38057        23.67179         3.37950
   H        0.10222        21.54946         2.75186
   H        0.35370        29.36671         3.22654
   H       -2.48025        28.44205         3.96173
   H       -1.85604        30.16852         3.92104
*
