# ORCA input file
# SCF done       -218.206994007458          0.000949426698
! CAM-B3LYP def2-SVP def2/J RIJCOSX Grid4 TightSCF
%maxcore 5000
%tddft
    Mode sTDDFT
    Ethresh 5.0
    maxcore 5000
end

%pal
  nprocs 6
  end
* xyz 0 1
   C       22.78222        -0.65231         4.12063
   C       23.25547         0.34641         4.95844
   F       24.26885         1.11404         4.54120
   C       22.70372         0.56909         6.22022
   F       23.19234         1.54558         6.99495
   C       21.65552        -0.21213         6.67791
   C       21.18628        -1.20662         5.84284
   C       21.73227        -1.43800         4.57147
   C       21.01234        -2.54900         3.94782
   C       21.25534        -3.01476         2.68137
   C       22.24806        -2.49185         1.82410
   N       23.03308        -2.12154         1.07326
   C       20.57508        -4.05845         2.01730
   N       20.08635        -4.88512         1.38624
   C       20.01477        -3.01737         4.89524
   C       20.08986        -2.16743         6.10004
   O       19.42401        -2.20870         7.11358
   C       19.19717        -4.09591         4.65850
   C       18.17778        -4.68920         5.41860
   S       17.41533        -6.10935         4.71579
   C       16.35456        -6.27191         6.07112
   C       16.58836        -5.27067         7.00738
   C       17.59650        -4.39528         6.64779
   C       15.40412        -7.31723         6.14034
   C       15.17347        -8.31745         5.21438
   C       14.16427        -9.19628         5.58868
   C       13.59427        -8.89151         6.81112
   S       14.33366        -7.47991         7.50776
   C       12.54810        -9.57869         7.47490
   S       11.83257       -11.00128         6.77161
   C       10.73664       -11.17177         8.11688
   C       10.94467       -10.16335         9.04152
   C       11.95462        -9.27568         8.68532
   C        9.78494       -12.21744         8.18583
   C        9.64237       -13.18112         7.24239
   C        8.68009       -14.21166         7.31030
   S        8.60356       -15.41499         5.98811
   C        7.30436       -16.14733         6.82591
   C        7.03104       -15.45018         8.01211
   N        7.79699       -14.39581         8.25541
   C        5.89167       -16.08330         8.74763
   C        5.55062       -17.22193         7.83034
   C        6.40180       -17.22476         6.71990
   S        6.05777       -18.50425         5.63508
   C        4.75069       -19.05168         6.67274
   C        4.62125       -18.25260         7.80027
   C        4.01128       -20.18849         6.26156
   C        2.96519       -20.73609         6.92829
   C        2.24922       -21.87837         6.48344
   S        0.91038       -22.47951         7.42424
   C        0.62703       -23.76958         6.29131
   C        1.53450       -23.71186         5.25109
   C        2.43671       -22.65953         5.35689
   C       -0.41086       -24.71432         6.48434
   C       -1.33626       -24.77868         7.50832
   C       -2.21757       -25.84899         7.39182
   C       -1.98879       -26.63213         6.27701
   S       -0.64526       -26.01478         5.35219
   C       -2.68076       -27.79269         5.85767
   S       -4.02687       -28.42279         6.75021
   C       -4.22869       -29.73667         5.61464
   C       -3.27253       -29.65656         4.60996
   C       -2.41491       -28.57787         4.74476
   C       -5.24182       -30.69279         5.81681
   C       -5.52167       -31.72302         4.96424
   C       -6.51844       -32.67018         5.24338
   C       -6.85711       -33.78638         4.52305
   C       -8.16466       -34.43400         4.78120
   O       -8.90998       -34.23010         5.71241
   C       -8.38403       -35.34208         3.63137
   C       -7.25233       -35.31773         2.79816
   C       -7.23861       -36.06001         1.62848
   C       -8.36118       -36.81605         1.32400
   C       -9.47436       -36.84556         2.16359
   C       -9.49695       -36.10251         3.33321
   F      -10.53382       -37.59492         1.83305
   F       -8.37279       -37.53056         0.19240
   C       -6.23387       -34.45554         3.40695
   C       -4.90368       -34.47467         3.07131
   C       -3.86499       -33.86878         3.80817
   N       -2.95717       -33.44244         4.36768
   C       -4.37803       -35.19707         1.97932
   N       -3.88831       -35.74072         1.09485
   H       23.24593        -0.78083         3.15681
   H       21.22467        -0.04642         7.65243
   H       19.35744        -4.60084         3.71343
   H       16.02454        -5.20233         7.92118
   H       17.91659        -3.56289         7.24678
   H       15.73223        -8.39105         4.29823
   H       13.84266       -10.03632         4.99931
   H       10.37034       -10.08614         9.94726
   H       12.25740        -8.43024         9.27784
   H        9.13662       -12.23232         9.05050
   H       10.28617       -13.18429         6.37284
   H        5.05855       -15.38974         8.87486
   H        6.19245       -16.42634         9.73922
   H        3.87861       -18.42615         8.55711
   H        4.33203       -20.63373         5.33017
   H        2.63190       -20.29831         7.85833
   H        1.52710       -24.42381         4.44432
   H        3.20840       -22.47101         4.63348
   H       -1.35666       -24.06158         8.30963
   H       -3.00514       -26.06369         8.09241
   H       -3.19411       -30.38236         3.82170
   H       -1.60890       -28.35457         4.06819
   H       -5.81657       -30.60405         6.73009
   H       -4.97178       -31.80195         4.04034
   H       -7.16067       -32.47492         6.09650
   H       -6.40540       -36.06833         0.94507
   H      -10.35722       -36.12079         3.98305
*
