# ORCA input file
# SCF done       -180.815049346977          0.000626550921
! CAM-B3LYP def2-SVP def2/J RIJCOSX Grid4 TightSCF
%maxcore 5000
%tddft
    Mode sTDDFT
    Ethresh 5.0
    maxcore 5000
end

%pal
  nprocs 6
  end
* xyz 0 1
   C        5.17178        -4.98686         6.33850
   C        6.03829        -5.76390         7.09142
   F        6.49734        -5.28001         8.25115
   C        6.44019        -7.03176         6.66946
   F        7.27681        -7.74058         7.43081
   C        5.98264        -7.55795         5.47123
   C        5.12131        -6.78000         4.71899
   C        4.70949        -5.50425         5.13843
   C        3.80313        -4.94771         4.13614
   C        3.19743        -3.72188         4.23274
   C        3.38165        -2.82952         5.31197
   N        3.48121        -2.05049         6.14890
   C        2.30328        -3.13945         3.30815
   N        1.56800        -2.57550         2.62933
   C        3.67687        -5.91991         3.06345
   C        4.50161        -7.09958         3.41287
   O        4.67687        -8.13912         2.80282
   C        2.91003        -5.70293         1.94210
   C        2.70402        -6.52395         0.82971
   O        3.27612        -7.73989         0.69517
   C        2.90299        -8.28775        -0.47478
   C        2.05004        -7.40135        -1.14002
   C        1.91899        -6.27247        -0.31162
   O        1.21011        -5.15984        -0.51391
   S        1.26357        -7.58923        -2.70074
   C        3.42554        -9.57173        -0.76989
   C        4.24502       -10.11991         0.17012
   C        4.93207       -11.33577         0.21815
   S        4.99087       -12.62848        -0.96711
   C        6.05255       -13.60827        -0.00086
   C        6.35790       -12.96450         1.20441
   C        5.72393       -11.69553         1.30625
   N        6.06686       -11.12721         2.48452
   C        6.90267       -12.00760         3.13154
   N        7.44588       -11.67139         4.38440
   O        7.10284       -10.59672         4.85253
   O        8.21726       -12.45138         4.90085
   C        7.10815       -13.14982         2.38298
   C        6.49451       -14.87474        -0.41440
   O        7.30772       -15.59565         0.38771
   C        7.54912       -16.78656        -0.20986
   C        6.89136       -16.82182        -1.44561
   C        6.20614       -15.60371        -1.57247
   O        5.42191       -15.15799        -2.57238
   S        6.90847       -18.16521        -2.57210
   C        8.31495       -17.77167         0.43972
   C        8.85254       -17.59038         1.68191
   C        9.53852       -18.61197         2.35816
   C       10.03366       -18.62960         3.63339
   C       10.96469       -19.73258         3.99247
   O       11.19023       -20.72711         3.34224
   C       11.57443       -19.33208         5.27664
   C       10.98538       -18.13373         5.71469
   C       11.44002       -17.52680         6.87485
   C       12.46253       -18.14749         7.57735
   C       13.02554       -19.34937         7.14595
   C       12.58624       -19.95530         5.98036
   F       14.00523       -19.91624         7.85996
   F       12.92194       -17.57346         8.69379
   C        9.92623       -17.74561         4.77455
   C        8.93631       -16.84803         5.07848
   C        7.79972       -16.54159         4.30357
   N        6.83528       -16.23193         3.76173
   C        8.85645       -16.16511         6.31518
   N        8.71757       -15.60822         7.30788
   H        4.89195        -4.01548         6.71027
   H        6.30161        -8.54204         5.16331
   H        2.37320        -4.76729         1.86674
   H        0.74503        -5.19902        -1.36040
   H        1.75175        -8.79837        -2.94892
   H        3.17479       -10.06670        -1.69480
   H        4.40751        -9.51486         1.05398
   H        5.77401       -10.22601         2.84473
   H        7.69342       -13.99865         2.66689
   H        5.18435       -15.88730        -3.16114
   H        6.68898       -17.42057        -3.66242
   H        8.42388       -18.71550        -0.07581
   H        8.73088       -16.62753         2.15037
   H        9.75688       -19.51105         1.78906
   H       11.04700       -16.59526         7.24746
   H       13.02423       -20.87897         5.63743
*
