# ORCA input file
# SCF done       -180.625844563375          0.000594538264
! CAM-B3LYP def2-SVP def2/J RIJCOSX Grid4 TightSCF
%maxcore 5000
%tddft
    Mode sTDDFT
    Ethresh 5.0
    maxcore 5000
end

%pal
  nprocs 6
  end
* xyz 0 1
   C       -1.93619        -0.56109        -4.30733
   S       -1.91131         0.91930        -3.44650
   C       -0.70353         0.30283        -2.34382
   C       -0.37168        -0.99864        -2.65786
   C       -1.07483        -1.48331        -3.78875
   C       -0.90073        -2.86440        -4.31772
   S       -2.41717        -3.86947        -3.96510
   C        0.35006        -3.53198        -3.75595
   C        0.46301        -3.31143        -2.25153
   C        0.64650        -1.82779        -1.93828
   C       -0.17082         1.11020        -1.29810
   C       -0.55282         2.38187        -1.05132
   C       -0.02190         3.21651        -0.02961
   S       -0.64079         4.83689         0.15045
   C        0.44604         5.16094         1.46962
   C        1.22941         4.05806         1.73642
   C        0.96725         2.97309         0.90108
   C        0.45993         6.42636         2.11157
   C       -0.34402         7.51729         1.86283
   C       -0.05374         8.61879         2.66679
   C        0.98306         8.39740         3.55005
   S        1.60244         6.77873         3.37902
   C        1.54428         9.30852         4.48415
   S        2.89770         8.87121         5.48541
   C        2.94438        10.45421         6.21498
   C        1.94229        11.24981         5.69309
   C        1.16309        10.61296         4.73035
   C        3.94777        10.74835         7.17572
   C        4.12737        11.95493         7.76585
   C        5.15927        12.26531         8.68927
   N        5.29822        13.55057         9.17943
   C        6.37987        13.58958        10.00066
   C        7.16080        14.42450        10.79525
   C        8.18237        13.62245        11.31364
   N        8.02081        12.32850        10.85472
   C        6.93254        12.28662        10.04194
   C        6.16954        11.45872         9.22269
   C        9.28054        13.96134        12.14653
   C        9.57121        15.21406        12.57356
   C       10.70211        15.56753        13.35602
   S       11.00720        17.25249        13.69307
   C       12.47148        16.87028        14.55406
   C       12.67776        15.50699        14.57759
   C       11.69316        14.78116        13.91035
   C       13.29216        17.89518        15.09000
   C       13.09356        19.25800        15.04387
   C       14.12249        19.99068        15.63467
   C       15.13215        19.20627        16.14777
   S       14.79014        17.51454        15.89713
   C       16.33042        19.62207        16.78305
   S       16.71242        21.31034        16.95622
   C       18.23122        20.93941        17.72959
   C       18.39517        19.57298        17.84038
   C       17.33562        18.83882        17.31156
   C       19.08666        22.00153        18.12560
   C       20.31270        21.84469        18.67413
   C       21.16161        22.92208        19.04612
   S       20.68595        24.57531        18.78823
   C       22.19431        25.17126        19.42122
   C       23.01697        24.13206        19.80013
   C       22.42678        22.86211        19.60875
   C       23.12866        21.58991        19.96056
   S       22.10187        20.51393        21.06381
   C       24.47939        21.82692        20.63082
   C       25.20712        22.99410        19.97689
   C       24.43520        24.28141        20.25370
   C       22.38098        26.59736        19.44681
   C       23.25500        27.28241        20.18155
   H       -2.59258        -0.67762        -5.14710
   H       -0.87578        -2.86124        -5.41056
   H       -2.49553        -3.56786        -2.67134
   H        1.22427        -3.10119        -4.25182
   H        0.32210        -4.59899        -3.98298
   H        1.30984        -3.87580        -1.85793
   H       -0.43911        -3.68316        -1.75973
   H        1.64696        -1.51172        -2.25455
   H        0.57577        -1.66349        -0.86071
   H        0.59122         0.64770        -0.68740
   H       -1.31997         2.82534        -1.67322
   H        1.96818         4.05537         2.51884
   H        1.48877         2.03567         0.97101
   H       -1.11627         7.50344         1.11383
   H       -0.57992         9.55381         2.60530
   H        1.78016        12.26705         6.00059
   H        0.34319        11.08649         4.22092
   H        4.61737         9.93669         7.42117
   H        3.45981        12.76923         7.51468
   H        4.69729        14.31944         8.93805
   H        7.02585        15.46985        10.98412
   H        8.63788        11.56589        11.07488
   H        6.31037        10.41581         9.02472
   H        9.93397        13.14411        12.42309
   H        8.92561        16.03101        12.28537
   H       13.52928        15.06545        15.06558
   H       11.70291        13.70903        13.83324
   H       12.22440        19.69647        14.58607
   H       14.14546        21.06485        15.68976
   H       19.25735        19.12192        18.29692
   H       17.28744        17.76382        17.30510
   H       18.71245        23.00346        17.95557
   H       20.69796        20.85124        18.84638
   H       23.25094        20.97315        19.06399
   H       21.89074        21.43705        21.99840
   H       25.07228        20.91273        20.57474
   H       24.32415        22.05794        21.68823
   H       25.27798        22.82976        18.89944
   H       26.21912        23.07364        20.37673
   H       24.89611        25.12233        19.73110
   H       24.46453        24.49591        21.32717
   H       21.69659        27.14020        18.80595
   H       23.92622        26.81798        20.88014
   H       23.30270        28.35559        20.11640
*
