# ORCA input file
# SCF done       -150.590886309169          0.000396327127
! CAM-B3LYP def2-SVP def2/J RIJCOSX Grid4 TightSCF
%maxcore 5000
%tddft
    Mode sTDDFT
    Ethresh 5.0
    maxcore 5000
end

%pal
  nprocs 6
  end
* xyz 0 1
   C        2.32388         5.28567        -9.75359
   S        1.76054         4.67685       -11.25028
   C        3.03850         3.52100       -11.28802
   C        3.85218         3.60107       -10.20808
   C        5.03458         2.71549        -9.99207
   C        3.44274         4.63615        -9.29691
   C        4.14326         4.92615        -8.07657
   C        3.81540         5.87940        -7.17731
   C        4.56476         6.11594        -5.99244
   C        4.24256         7.07045        -5.08647
   C        4.94690         7.38009        -3.88444
   C        6.09310         6.76212        -3.45140
   C        6.78224         7.06435        -2.27517
   C        6.23011         8.03205        -1.31178
   C        5.12650         8.77739        -1.53073
   S        4.19486         8.69056        -2.96893
   C        7.09352         7.97730        -0.18518
   C        8.11418         7.05810        -0.42295
   C        9.01527         6.97131         0.66165
   C        8.66109         7.80500         1.67380
   S        7.23080         8.73017         1.35606
   C        7.95067         6.49728        -1.73931
   C        8.86175         5.56423        -2.30150
   C        9.05152         5.31363        -3.62135
   C        9.94821         4.34645        -4.14568
   N       10.13871         4.23609        -5.51086
   C       11.02267         3.23048        -5.74887
   C       11.68931         2.53188        -6.74964
   C       12.45885         1.55976        -6.09858
   N       12.26377         1.66842        -4.73325
   C       11.39276         2.68286        -4.49592
   C       10.72365         3.38160        -3.49461
   C       13.31675         0.56297        -6.62404
   C       13.60342         0.39915        -7.94067
   C       14.43997        -0.60714        -8.50314
   C       15.03274        -1.63825        -7.81531
   C       15.83863        -2.62648        -8.38034
   C       16.13174        -2.63868        -9.81845
   C       15.66088        -1.72886       -10.69729
   S       14.64659        -0.42006       -10.24751
   C       16.96042        -3.77440       -10.01922
   C       17.17085        -4.43645        -8.80806
   C       17.99942        -5.56987        -8.97796
   C       18.37991        -5.73260       -10.27184
   S       17.75750        -4.52651       -11.34459
   C       16.46838        -3.72549        -7.76633
   C       16.38881        -4.02592        -6.38684
   C       16.90730        -5.10770        -5.75321
   C       16.78495        -5.34030        -4.36005
   S       15.93355        -4.20965        -3.34012
   C       16.21044        -5.19711        -1.96101
   C       16.89365        -6.33730        -2.24110
   C       17.27900        -7.30895        -1.17383
   C       17.23435        -6.43745        -3.62655
   C       17.98785        -7.50226        -4.23950
   C       18.03555        -8.78907        -3.85409
   C       18.82864        -9.77711        -4.53511
   C       18.86707       -11.06273        -4.18907
   H        1.79359         6.09443        -9.29304
   H        3.10793         2.84610       -12.11822
   H        5.13545         2.01455       -10.81665
   H        4.92415         2.15040        -9.06699
   H        5.94751         3.30663        -9.92512
   H        5.01231         4.31275        -7.87870
   H        2.95153         6.50787        -7.34217
   H        5.42840         5.48389        -5.83574
   H        3.36536         7.67726        -5.27528
   H        6.46770         5.95246        -4.05873
   H        4.75491         9.49196        -0.81324
   H        9.87822         6.33099         0.69692
   H        9.15706         7.94650         2.61434
   H        9.49021         5.04689        -1.58875
   H        8.52102         5.90384        -4.35651
   H        9.70987         4.83551        -6.19441
   H       11.63608         2.68446        -7.80841
   H       12.70933         1.08367        -4.04766
   H       10.77049         3.22266        -2.43657
   H       13.76048        -0.09937        -5.89235
   H       13.17084         1.09007        -8.65082
   H       14.84617        -1.68731        -6.75243
   H       15.88812        -1.76277       -11.75112
   H       18.31287        -6.24188        -8.20042
   H       19.00377        -6.50389       -10.68001
   H       15.84361        -3.31320        -5.77966
   H       17.43299        -5.85932        -6.31917
   H       15.85286        -4.86643        -1.00545
   H       17.23947        -6.82477        -0.20020
   H       18.28637        -7.68315        -1.34419
   H       16.59317        -8.15597        -1.15538
   H       18.55709        -7.22024        -5.11755
   H       17.44441        -9.14492        -3.02468
   H       19.41946        -9.42674        -5.37277
   H       18.29152       -11.44042        -3.35978
   H       19.47060       -11.77917        -4.71879
*
