# ORCA input file
# SCF done       -205.205097973116          0.000695129464
! CAM-B3LYP def2-SVP def2/J RIJCOSX Grid4 TightSCF
%maxcore 5000
%tddft
    Mode sTDDFT
    Ethresh 5.0
    maxcore 5000
end

%pal
  nprocs 6
  end
* xyz 0 1
   C       -3.72656         3.57746        -3.73644
   C       -3.00956         3.82854        -4.89711
   C       -2.30609         2.81904        -5.53832
   C       -2.29151         1.52844        -5.03092
   C       -3.00377         1.26677        -3.87296
   C       -3.73036         2.29009        -3.22317
   C       -4.39660         1.72796        -2.05376
   C       -5.10835         2.43391        -1.11966
   C       -5.28778         3.83285        -1.15286
   N       -5.47202         4.96531        -1.11529
   C       -5.72907         1.88455         0.02120
   N       -6.25774         1.50721         0.96857
   C       -4.17181         0.28957        -2.09505
   C       -3.13887         0.04725        -3.09292
   C       -2.25245        -0.99755        -3.09388
   C       -2.21446        -1.98794        -2.08998
   N       -2.11661        -2.77889        -1.26375
   C       -1.21823        -1.15133        -4.03820
   N       -0.37149        -1.33952        -4.79012
   C       -4.89101        -0.63669        -1.38684
   C       -5.06542        -2.00677        -1.66848
   S       -4.85351        -2.71452        -3.25409
   C       -5.32289        -4.27999        -2.66935
   C       -5.64084        -4.23231        -1.32170
   C       -5.52426        -2.96454        -0.77466
   C       -5.31640        -5.40143        -3.52876
   C       -5.05774        -5.43066        -4.88725
   C       -5.07697        -6.70998        -5.42664
   C       -5.34105        -7.69698        -4.49294
   S       -5.59980        -7.00818        -2.91600
   C       -5.34773        -9.09691        -4.69254
   S       -5.06252        -9.78042        -6.26622
   C       -5.09559       -11.40218        -5.62330
   C       -5.34887       -11.37607        -4.25872
   C       -5.49295       -10.09602        -3.74405
   C       -4.81962       -12.49176        -6.47790
   C       -4.59232       -13.76858        -6.05723
   C       -4.19768       -14.83363        -6.88928
   C       -4.08261       -14.94551        -8.25413
   C       -3.52095       -16.20373        -8.60826
   C       -3.24929       -16.94491        -7.48319
   C       -3.71335       -16.13020        -6.30986
   O       -3.69394       -16.44930        -5.14732
   C       -2.60336       -18.18066        -7.29547
   C       -2.01524       -18.91661        -8.28223
   C       -1.25358       -20.08477        -8.06714
   S       -0.42733       -20.83168        -9.41154
   C        0.30759       -22.01347        -8.36912
   C       -0.10261       -21.83248        -7.05829
   C       -0.96980       -20.76350        -6.88953
   C        1.22754       -22.96319        -8.87098
   C        1.63302       -23.14721       -10.18074
   C        2.59610       -24.13757       -10.32902
   C        2.95720       -24.73846        -9.13527
   S        2.06069       -24.05855        -7.80617
   C        3.92901       -25.74811        -8.92942
   S        4.26793       -26.37883        -7.35083
   C        5.50427       -27.43665        -7.98059
   C        5.61571       -27.28410        -9.35569
   C        4.74034       -26.34901        -9.88319
   C        6.19353       -28.30158        -7.10733
   C        7.24973       -29.08952        -7.45801
   C        7.95528       -29.94455        -6.58358
   C        7.52621       -30.53052        -5.41938
   C        8.41910       -31.01868        -4.37551
   C        9.76628       -31.25257        -4.46834
   C       10.55810       -31.09929        -5.62559
   N       11.27550       -31.01045        -6.51837
   C       10.56093       -31.72969        -3.40427
   N       11.27034       -32.11330        -2.58720
   C        7.60769       -31.20904        -3.17955
   C        6.25087       -30.99878        -3.51177
   C        5.26397       -31.09212        -2.54456
   C        5.63711       -31.40231        -1.24546
   C        6.96778       -31.62026        -0.91907
   C        7.96500       -31.52561        -1.87840
   C        6.16419       -30.71988        -4.93792
   C        5.03681       -30.88434        -5.69996
   C        3.76301       -31.17285        -5.16895
   N        2.69804       -31.38995        -4.79919
   C        5.00682       -30.86736        -7.10909
   N        4.90944       -30.91015        -8.25220
   H       -4.26863         4.37464        -3.25521
   H       -3.00331         4.82694        -5.30706
   H       -1.76196         3.03838        -6.44425
   H       -1.74645         0.74877        -5.53815
   H       -5.46481        -0.28641        -0.53837
   H       -5.94977        -5.10537        -0.77507
   H       -5.72647        -2.73087         0.25531
   H       -4.85585        -4.53795        -5.45261
   H       -4.88997        -6.93450        -6.46166
   H       -5.42435       -12.26739        -3.66347
   H       -5.68241        -9.87622        -2.70790
   H       -4.72443       -12.26038        -7.52994
   H       -4.64086       -14.00339        -5.00218
   H       -4.36668       -14.20012        -8.97541
   H       -3.33595       -16.50429        -9.62405
   H       -2.54012       -18.51245        -6.26762
   H       -2.08255       -18.57281        -9.30527
   H        0.23900       -22.46861        -6.26048
   H       -1.38117       -20.47795        -5.93894
   H        1.23278       -22.56570       -10.99227
   H        3.02639       -24.41174       -11.27456
   H        6.30605       -27.85330        -9.95024
   H        4.68618       -26.10542       -10.92831
   H        5.86215       -28.29169        -6.07616
   H        7.65784       -28.99397        -8.45395
   H        8.99158       -30.10388        -6.85172
   H        4.22782       -30.91664        -2.78416
   H        4.87973       -31.47291        -0.47981
   H        7.23563       -31.86327         0.09781
   H        8.99342       -31.69176        -1.60377
*
