# ORCA input file
# SCF done       -195.272877619480          0.000621297722
! CAM-B3LYP def2-SVP def2/J RIJCOSX Grid4 TightSCF
%maxcore 5000
%tddft
    Mode sTDDFT
    Ethresh 5.0
    maxcore 5000
end

%pal
  nprocs 6
  end
* xyz 0 1
   C       -5.11508         2.55260         4.57102
   C       -4.36463         2.58871         5.73785
   C       -3.31090         1.70989         5.94013
   C       -2.97088         0.77212         4.97592
   C       -3.71569         0.72466         3.81051
   C       -4.79531         1.61305         3.60475
   C       -5.40618         1.32173         2.31138
   C       -6.43297         2.02596         1.73318
   C       -7.03951         3.16069         2.30964
   N       -7.57776         4.08801         2.71998
   C       -7.00415         1.73771         0.47817
   N       -7.50767         1.54194        -0.53622
   C       -4.73897         0.14219         1.79118
   C       -3.57624        -0.10133         2.62143
   C       -2.42988        -0.74661         2.22587
   C       -2.22004        -1.18995         0.90475
   N       -2.00730        -1.50958        -0.17768
   C       -1.31821        -0.96457         3.05977
   N       -0.40131        -1.21197         3.70576
   C       -5.22794        -0.64568         0.77017
   C       -4.99740        -1.99758         0.51557
   S       -4.26303        -3.14487         1.63481
   C       -4.52299        -4.52937         0.60588
   C       -5.17374        -4.11570        -0.56677
   C       -5.43967        -2.71668        -0.59858
   N       -6.06075        -2.42673        -1.76257
   C       -6.19609        -3.60010        -2.46934
   N       -6.81795        -3.59206        -3.73184
   O       -7.20844        -2.51174        -4.14006
   O       -6.92273        -4.65041        -4.31866
   C       -5.66422        -4.66256        -1.76932
   C       -4.12446        -5.82220         0.96074
   C       -3.44038        -6.11847         2.10767
   C       -3.04622        -7.40268         2.51779
   N       -2.34188        -7.58705         3.69296
   C       -2.12444        -8.91308         3.86620
   C       -1.57302        -9.85922         4.71542
   C       -1.82899       -11.11037         4.12601
   N       -2.50979       -10.92723         2.94039
   C       -2.70994        -9.59582         2.75908
   C       -3.28061        -8.65696         1.91811
   C       -1.49185       -12.36852         4.66925
   C       -1.78264       -13.58033         4.11514
   C       -1.51958       -14.83262         4.70159
   S       -2.03459       -16.29186         3.88208
   C       -1.51184       -17.35879         5.15743
   C       -0.92911       -16.59354         6.18153
   C       -0.93718       -15.19212         5.91765
   N       -0.35836       -14.56588         6.97396
   C        0.00957       -15.52446         7.88506
   N        0.64497       -15.12835         9.07637
   O        0.82084       -13.92752         9.21749
   O        0.97250       -15.98756         9.86661
   C       -0.32507       -16.78659         7.43889
   C       -1.74700       -18.73428         5.15105
   C       -2.29085       -19.43100         4.10377
   C       -2.58728       -20.80490         4.10750
   C       -2.85301       -21.60984         5.19185
   C       -2.70618       -23.05823         5.19756
   C       -2.51982       -23.88387         4.11879
   C       -2.46641       -23.48449         2.76726
   N       -2.40787       -23.24588         1.64520
   C       -2.38482       -25.28565         4.21016
   N       -2.27120       -26.42790         4.20561
   C       -2.76722       -23.48614         6.59025
   C       -3.07362       -22.36754         7.39686
   C       -3.16173       -22.49149         8.77345
   C       -2.95121       -23.73931         9.34100
   C       -2.66386       -24.84201         8.54994
   C       -2.56739       -24.72853         7.17067
   C       -3.27177       -21.21551         6.52913
   C       -3.97817       -20.09178         6.87622
   C       -4.44572       -19.82594         8.17968
   N       -4.83802       -19.53355         9.21831
   C       -4.40177       -19.08538         5.98549
   N       -4.82011       -18.24054         5.32951
   H       -5.92913         3.24483         4.43313
   H       -4.60926         3.31350         6.49921
   H       -2.74584         1.75439         6.85864
   H       -2.15140         0.09136         5.14183
   H       -5.96969        -0.20245         0.11867
   H       -6.38430        -1.53405        -2.10660
   H       -5.64066        -5.68035        -2.10015
   H       -4.37911        -6.60723         0.26425
   H       -3.17813        -5.29862         2.76614
   H       -2.04232        -6.84225         4.29897
   H       -1.05729        -9.70429         5.64145
   H       -2.81971       -11.66468         2.33265
   H       -3.80536        -8.82188         0.99969
   H       -0.98329       -12.32452         5.61990
   H       -2.28242       -13.62623         3.15753
   H       -0.19097       -13.58422         7.13092
   H       -0.14594       -17.70291         7.96259
   H       -1.45503       -19.26210         6.05058
   H       -2.43070       -18.90583         3.16746
   H       -2.55708       -21.28365         3.13789
   H       -3.37644       -21.64091         9.39965
   H       -3.01158       -23.84997        10.41277
   H       -2.50785       -25.80479         9.01187
   H       -2.33722       -25.59595         6.57479
*
