# ORCA input file
# SCF done       -225.205120591038          0.000880821866
! CAM-B3LYP def2-SVP def2/J RIJCOSX Grid4 TightSCF
%maxcore 5000
%tddft
    Mode sTDDFT
    Ethresh 5.0
    maxcore 5000
end

%pal
  nprocs 6
  end
* xyz 0 1
   C       -2.18440        -0.50658        -0.71679
   C       -2.94819        -1.33428        -1.49564
   C       -4.31468        -1.12307        -1.76842
   N       -5.43664        -1.01823        -1.98728
   C       -2.43310        -2.46211        -2.16738
   N       -2.06031        -3.35698        -2.78139
   C       -2.58224         0.81688        -0.24378
   C       -1.42517         1.54832         0.08165
   C       -1.49540         2.85428         0.52154
   C       -2.74873         3.44033         0.65091
   C       -3.90439         2.71456         0.33982
   C       -3.83030         1.40230        -0.11377
  Cl       -5.44647         3.44861         0.51918
  Cl       -2.87698         5.06319         1.19761
   C       -0.23022         0.69531        -0.11067
   O        0.93033         1.00469         0.01940
   C       -0.76870        -0.65217        -0.44089
   C        0.04136        -1.73851        -0.34535
   C       -0.30370        -3.12621        -0.23155
   C       -1.53191        -3.54048         0.31486
   C       -1.79592        -4.87837         0.44226
   C       -0.85172        -5.83974         0.03322
   C        0.36881        -5.44280        -0.49791
   C        0.63809        -4.09574        -0.60970
   C       -1.38843        -7.15278         0.30494
   C       -2.66724        -7.00660         0.87174
   C       -3.02945        -5.54603         1.00161
   C       -3.26401        -5.15171         2.47166
   C       -2.06672        -5.45492         3.36445
   C       -4.27715        -5.20109         0.16560
   C       -4.16396        -5.65159        -1.28560
   C       -3.40704        -8.10499         1.23162
   C       -2.87289        -9.38905         1.04048
   C       -1.59152        -9.51894         0.48727
   C       -0.84957        -8.41830         0.11513
   C       -3.62651       -10.55784         1.41793
   S       -2.81522       -12.10087         1.61480
   C       -4.29925       -12.84180         2.04531
   C       -5.36584       -11.94956         2.02315
   C       -4.97986       -10.65845         1.67419
   C       -6.65481       -12.64549         2.39536
   C       -7.27036       -12.04300         3.66102
   C       -7.65675       -12.61341         1.23781
   C       -6.14771       -14.04779         2.64481
   C       -4.77298       -14.11946         2.42919
   S       -4.14559       -15.68584         2.72227
   C       -5.74901       -16.26550         3.14223
   C       -6.69698       -15.26021         3.04279
   C       -5.88984       -17.62216         3.54630
   C       -7.05950       -18.22876         3.83944
   C       -7.22649       -19.58624         4.29579
   C       -8.53086       -20.10015         4.39479
   C       -8.74022       -21.37406         4.86406
   C       -7.64078       -22.18257         5.20620
   C       -6.34420       -21.69334         5.10546
   C       -6.14745       -20.40430         4.66207
   C       -8.12602       -23.47323         5.62616
   C       -9.53271       -23.47444         5.54086
   C      -10.03955       -22.13813         5.03359
   C      -10.95611       -21.53863         6.12049
   C      -11.52998       -20.15728         5.83313
   C      -10.70194       -22.24771         3.64352
   C      -11.99147       -23.05536         3.57512
   C      -10.23847       -24.57671         5.94688
   C       -9.55693       -25.70760         6.44273
   C       -8.15352       -25.70816         6.46398
   C       -7.44010       -24.60006         6.06327
   C      -10.35099       -26.82847         6.84706
   C      -10.08704       -27.80398         7.76267
   C      -10.95368       -28.94546         8.01289
   C      -11.94568       -29.41376         7.19262
   C      -12.73872       -30.54543         7.47932
   N      -13.42056       -31.45167         7.65474
   C      -12.29979       -28.86558         5.94081
   N      -12.63989       -28.49608         4.90814
   C      -10.52402       -29.56765         9.26058
   C       -9.39075       -28.88804         9.73582
   C       -9.04126       -27.78039         8.81704
   O       -8.12687       -27.00187         8.96602
   C       -8.75782       -29.25586        10.90539
   C       -9.26879       -30.33151        11.62046
   C      -10.40044       -31.01202        11.15719
   C      -11.03455       -30.63779         9.97806
  Cl      -11.02812       -32.33365        12.05677
  Cl       -8.50829       -30.82443        13.07893
   H       -0.59847         3.40461         0.75771
   H       -4.73919         0.86981        -0.34305
   H        1.09976        -1.50571        -0.27224
   H       -2.23586        -2.80309         0.67268
   H        1.09806        -6.17487        -0.80949
   H        1.58089        -3.76769        -1.02199
   H       -4.13715        -5.69220         2.84284
   H       -3.49055        -4.08417         2.51610
   H       -1.83627        -6.51785         3.34900
   H       -2.28190        -5.16419         4.39001
   H       -1.18749        -4.90899         3.02946
   H       -4.43406        -4.12038         0.19972
   H       -5.14687        -5.67588         0.62534
   H       -3.30056        -5.19884        -1.76778
   H       -5.05445        -5.35630        -1.83553
   H       -4.06335        -6.73290        -1.34599
   H       -4.38280        -7.98752         1.67674
   H       -1.18637       -10.51042         0.34480
   H        0.13230        -8.54191        -0.31569
   H       -5.65690        -9.82818         1.58829
   H       -7.56024       -11.01060         3.48108
   H       -6.55282       -12.06682         4.47823
   H       -8.15141       -12.60853         3.95440
   H       -7.94733       -11.58802         1.02254
   H       -8.54571       -13.18336         1.49675
   H       -7.21385       -13.04520         0.34310
   H       -7.73695       -15.41499         3.26442
   H       -4.96293       -18.17508         3.60825
   H       -7.97654       -17.66543         3.72674
   H       -9.35599       -19.47698         4.08386
   H       -5.50272       -22.31451         5.37324
   H       -5.14197       -20.01874         4.60094
   H      -10.37830       -21.49366         7.04783
   H      -11.77943       -22.23520         6.28687
   H      -10.74519       -19.40728         5.80148
   H      -12.22054       -19.88430         6.62864
   H      -12.07617       -20.14097         4.89383
   H       -9.96963       -22.69693         2.96703
   H      -10.89510       -21.23606         3.28260
   H      -11.81007       -24.10220         3.79988
   H      -12.39682       -22.99724         2.56712
   H      -12.74079       -22.66922         4.26084
   H      -11.31798       -24.58935         5.93333
   H       -7.62824       -26.59304         6.77993
   H       -6.36138       -24.60690         6.09422
   H      -11.32506       -26.86838         6.37166
   H       -7.88816       -28.72002        11.25143
   H      -11.90706       -31.18159         9.65545
*
