# ORCA input file
# SCF done       -194.315538768439          0.000731229299
! CAM-B3LYP def2-SVP def2/J RIJCOSX Grid4 TightSCF
%maxcore 5000
%tddft
    Mode sTDDFT
    Ethresh 5.0
    maxcore 5000
end

%pal
  nprocs 6
  end
* xyz 0 1
   C       -4.33306        -3.96346         1.97642
   C       -3.86749        -4.04042         3.26401
   C       -3.02167        -5.06592         3.73823
   N       -2.33082        -5.86462         4.18805
   C       -4.17701        -3.14842         4.31245
   N       -4.39142        -2.48590         5.22633
   C       -4.08445        -4.94862         0.93325
   C       -4.84353        -4.59799        -0.21053
   C       -4.83488        -5.34276        -1.36547
   C       -4.03701        -6.48991        -1.39486
   C       -3.27660        -6.83083        -0.24954
   C       -3.28646        -6.07771         0.91831
   S       -2.36289        -8.28249        -0.51184
   C       -2.99408        -8.41896        -2.11628
   C       -3.84957        -7.42755        -2.44885
   C       -5.59494        -3.36018         0.05183
   O       -6.32934        -2.79558        -0.73066
   C       -5.21686        -2.94454         1.42747
   C       -5.50487        -1.76736         2.05827
   C       -6.38729        -0.72271         1.71025
   C       -7.38549        -0.61367         0.75064
   C       -8.03946         0.61004         0.81246
   C       -7.53863         1.45643         1.82657
   S       -6.28222         0.73362         2.71137
   C       -8.25219         2.67783         1.78633
   C       -9.20825         2.60890         0.75451
   C       -9.11422         1.30187         0.11805
   C       -9.88716         0.82687        -0.89830
   C       -9.75179        -0.47589        -1.42825
   N       -9.68321        -1.53054        -1.87101
   C      -10.90899         1.60187        -1.49014
   N      -11.74085         2.22046        -1.97887
   C       -9.95645         3.77670         0.63318
   C       -9.57096         4.72804         1.56459
   S       -8.27744         4.17597         2.60492
   C      -10.11171         6.02956         1.69723
   N      -11.05790         6.49377         0.93373
   C      -11.35689         7.74831         1.26001
   C      -10.62773         8.31323         2.32391
   S       -9.50609         7.16664         2.93319
   N      -10.91467         9.57395         2.63798
   C      -11.84840        10.04241         1.86117
   S      -12.46958         8.90081         0.63983
   C      -12.33898        11.36623         1.93394
   C      -13.29915        11.96350         1.13618
   C      -13.49366        13.29795         1.48369
   C      -12.67407        13.70905         2.55345
   S      -11.67002        12.45567         3.13080
   C      -12.92365        15.08173         2.81006
   C      -13.90034        15.53433         1.90177
   C      -14.28747        14.43193         1.03816
   C      -15.17774        14.47651         0.00635
   C      -15.47679        13.34455        -0.78119
   N      -15.72858        12.42444        -1.41677
   C      -15.85255        15.66936        -0.33049
   N      -16.39378        16.64608        -0.59068
   C      -14.17867        16.88899         2.03634
   C      -13.42166        17.48173         3.03520
   S      -12.37845        16.31871         3.84260
   C      -13.42353        18.82971         3.46534
   C      -13.84385        19.93349         2.79246
   C      -14.17897        20.18868         1.40508
   C      -13.64293        19.57386         0.30343
   C      -13.90880        19.96902        -1.02494
   N      -14.08546        20.25036        -2.12320
   C      -12.68501        18.54334         0.36033
   N      -11.88129        17.72309         0.35375
   C      -14.97391        21.41054         1.37280
   C      -14.91927        22.02589         2.65103
   C      -14.14086        21.17623         3.56674
   O      -13.83596        21.39327         4.71658
   C      -15.53712        23.22473         2.91641
   C      -16.24973        23.83593         1.88037
   C      -16.31488        23.20214         0.61497
   C      -15.68378        21.99417         0.34193
   S      -17.25986        24.12965        -0.50486
   C      -17.54839        25.33607         0.70004
   C      -16.97026        25.06328         1.89031
   H       -5.42863        -5.04734        -2.21653
   H       -2.68646        -6.37863         1.76061
   H       -2.68019        -9.24744        -2.72110
   H       -4.33902        -7.34852        -3.40260
   H       -4.96871        -1.57484         2.98048
   H       -7.59669        -1.39686         0.04524
   H      -10.73876         3.96207        -0.07916
   H      -13.81126        11.44102         0.34818
   H      -14.91863        17.42234         1.46782
   H      -13.10049        19.01076         4.48611
   H      -15.47156        23.67682         3.89384
   H      -15.76778        21.54209        -0.63254
   H      -18.14366        26.18929         0.43854
   H      -17.04202        25.69846         2.75450
*
