# ORCA input file
# SCF done       -151.935420802291          0.000837885621
! CAM-B3LYP def2-SVP def2/J RIJCOSX Grid4 TightSCF
%maxcore 5000
%tddft
    Mode sTDDFT
    Ethresh 5.0
    maxcore 5000
end

%pal
  nprocs 6
  end
* xyz 0 1
   C       -0.21229        -0.16848         4.05103
   C       -0.85675        -0.06270         2.82430
   N       -0.82002         1.03800         2.09922
   C       -0.12874         2.06346         2.59791
   N        0.52539         2.06420         3.76069
   C        0.48139         0.95776         4.47582
   C       -0.08009         3.27941         1.83071
   C       -0.67105         3.53670         0.61173
   C       -0.41091         4.83991         0.18672
   C        0.38521         5.55964         1.10288
   S        0.80863         4.63528         2.47328
   C        0.58684         6.86831         0.59899
   C       -0.08544         6.97543        -0.63689
   C       -0.72748         5.70370        -0.93693
   C       -1.46480         5.39614        -2.04253
   C       -1.69933         6.33084        -3.07336
   N       -1.90076         7.08391        -3.91433
   C       -2.04084         4.12256        -2.23637
   N       -2.51298         3.09189        -2.40708
   C        0.04028         8.23130        -1.21137
   C        0.80687         9.08718        -0.42702
   S        1.38153         8.31413         1.04356
   C        1.12702        10.43932        -0.70657
   C        1.93857        11.19416         0.17082
   C        2.27431        12.57219        -0.08190
   N        3.04761        13.23196         0.78695
   C        3.49792        12.62567         1.85876
   C        3.16535        11.25478         2.10898
   N        2.40589        10.59311         1.26930
   C        3.65614        10.59655         3.26330
   N        4.06500        10.09027         4.20574
   C        4.31898        13.34145         2.76442
   N        4.98460        13.89454         3.51458
   C        1.81622        13.26657        -1.22365
   C        1.00675        12.51378        -2.10745
   C        0.67003        11.13009        -1.85468
   N       -0.10227        10.63341        -2.82154
   S       -0.37783        11.76313        -3.92348
   N        0.46121        12.94738        -3.24436
   C        2.16033        14.62504        -1.44106
   C        1.78671        15.41940        -2.51923
   C        2.29723        16.70549        -2.41701
   C        3.06602        16.89739        -1.25073
   S        3.16104        15.49041        -0.28447
   C        3.53385        18.23482        -1.24713
   C        3.06551        18.88573        -2.40236
   C        2.27383        17.94617        -3.17753
   C        1.64394        18.17563        -4.36543
   C        1.69864        19.42997        -5.00920
   N        1.74543        20.45266        -5.52571
   C        0.89863        17.17773        -5.02876
   N        0.29390        16.37257        -5.57699
   C        3.47978        20.21763        -2.47898
   C        4.25716        20.58281        -1.40052
   S        4.48271        19.25642        -0.26620
   C        4.86159        21.86159        -1.14128
   C        4.56474        23.01442        -1.88578
   N        5.13604        24.17556        -1.64327
   C        6.00618        24.22997        -0.64988
   N        6.35807        23.22106         0.12833
   C        5.79874        22.05454        -0.11603
   H       -0.24841        -1.07060         4.63800
   H       -1.42348        -0.88323         2.40307
   H        1.01879         0.98126         5.41526
   H       -1.25225         2.79946         0.08914
   H       -0.38757         8.54652        -2.14517
   H        1.17387        15.04300        -3.31741
   H        3.23485        20.88372        -3.28567
   H        3.84285        23.00176        -2.69133
   H        6.47031        25.18701        -0.45477
   H        6.10518        21.23316         0.52144
*
