# ORCA input file
# SCF done       -165.534132888256          0.000424111620
! CAM-B3LYP def2-SVP def2/J RIJCOSX Grid4 TightSCF
%maxcore 5000
%tddft
    Mode sTDDFT
    Ethresh 5.0
    maxcore 5000
end

%pal
  nprocs 6
  end
* xyz 0 1
   C        0.06460        -6.00941         5.90083
   N        0.75693        -6.27644         4.82771
   N        0.19567        -6.48522         3.66538
   C       -1.11165        -6.44097         3.47854
   C       -1.97013        -6.15601         4.57833
   C       -1.34369        -5.93226         5.84807
   N       -2.23542        -5.67909         6.80616
   S       -3.70518        -5.72082         6.16389
   N       -3.29479        -6.06007         4.64640
   C       -1.59444        -6.69537         2.15826
   C       -2.90074        -6.70351         1.71025
   C       -2.96834        -7.01112         0.35273
   C       -1.69712        -7.23493        -0.21879
   S       -0.42779        -7.06349         0.90694
   C       -1.86957        -7.55881        -1.58817
   C       -3.25066        -7.53945        -1.87967
   C       -3.98176        -7.18789        -0.67060
   C       -5.33253        -7.05582        -0.53249
   C       -6.21770        -7.25568        -1.61282
   N       -6.93888        -7.41796        -2.48933
   C       -5.93536        -6.71145         0.69596
   N       -6.43938        -6.43220         1.68716
   C       -3.52731        -7.86958        -3.19940
   C       -2.36364        -8.14036        -3.91004
   S       -0.90837        -7.97514        -2.93680
   C       -2.23470        -8.54123        -5.24994
   C       -1.02118        -8.81785        -5.88927
   C       -1.18448        -9.25267        -7.24603
   N       -0.13512        -9.56638        -8.00438
   C        1.05372        -9.45464        -7.44944
   C        2.22473        -9.79823        -8.29357
   O        2.11443       -10.17259        -9.44224
   C        3.53302        -9.64970        -7.63359
   C        3.68484        -9.24606        -6.36780
   C        2.56207        -8.90130        -5.47928
   O        2.72640        -8.54431        -4.33152
   C        1.21668        -9.02144        -6.09341
   N        0.18551        -8.71228        -5.33527
   C       -2.52360        -9.30779        -7.64800
   S       -3.56105        -8.80949        -6.34308
   C       -2.96939        -9.73652        -8.90906
   C       -4.27512        -9.81517        -9.37941
   C       -4.31994       -10.32656       -10.66916
   C       -3.04150       -10.63959       -11.17943
   S       -1.78137       -10.29231       -10.08022
   C       -3.19983       -11.18048       -12.48044
   C       -4.57663       -11.20511       -12.79126
   C       -5.32186       -10.66344       -11.67038
   C       -6.67296       -10.50296       -11.57155
   C       -7.27986        -9.95842       -10.42013
   N       -7.77676        -9.51625        -9.48613
   C       -7.55476       -10.86726       -12.61124
   N       -8.28160       -11.15938       -13.44847
   C       -4.83423       -11.74428       -14.05013
   C       -3.66645       -12.12469       -14.68157
   S       -2.22987       -11.81558       -13.73115
   C       -3.51170       -12.73250       -15.96519
   N       -2.28328       -13.02295       -16.35567
   N       -2.01547       -13.58859       -17.50375
   C       -2.94697       -13.91465       -18.35707
   C       -4.30572       -13.66202       -18.07074
   C       -4.61143       -13.03935       -16.81634
   N       -5.91758       -12.84961       -16.65345
   S       -6.68082       -13.40323       -17.95624
   N       -5.40357       -13.90790       -18.78592
   H        0.61351        -5.85362         6.81619
   H       -3.73478        -6.49751         2.35669
   H       -4.50506        -7.92365        -3.64383
   H        4.38610        -9.89511        -8.25171
   H        4.66553        -9.15185        -5.92123
   H       -5.12345        -9.51400        -8.79114
   H       -5.80213       -11.86800       -14.50155
   H       -2.63194       -14.37996       -19.27778
*
