# ORCA input file
# SCF done       -188.222332931900          0.000730922869
! CAM-B3LYP def2-SVP def2/J RIJCOSX Grid4 TightSCF
%maxcore 5000
%tddft
    Mode sTDDFT
    Ethresh 5.0
    maxcore 5000
end

%pal
  nprocs 6
  end
* xyz 0 1
   C        5.02100         1.25120         8.90907
   S        6.33046         2.33211         8.66620
   C        6.55389         1.78661         7.01579
   C        5.63391         0.80556         6.69330
   C        4.74107         0.48920         7.78783
   C        3.73592        -0.46495         7.70116
   S        3.41538        -1.39289         6.29306
   C        4.60480        -0.81278         5.17835
   C        5.52065         0.13792         5.43994
   C        7.57569         2.33746         6.19380
   C        8.42910         3.30401         6.58986
   C        9.48444         3.89788         5.80950
   C        9.76620         3.51149         4.48882
   C       10.78984         4.11734         3.80655
   C       11.56405         5.12538         4.40992
   C       11.29653         5.51883         5.71401
   C       10.26674         4.90446         6.39583
   C       12.55953         5.57122         3.46225
   C       12.40599         4.83659         2.27209
   C       11.26058         3.85863         2.39432
   C       10.15192         4.16562         1.37011
   C        9.62570         5.59165         1.47827
   C       11.73919         2.40636         2.21509
   C       12.83804         2.02156         3.19828
   C       13.23059         5.05030         1.19880
   C       14.24545         6.02140         1.28066
   C       14.37472         6.75498         2.47260
   C       13.55174         6.53823         3.55721
   C       15.14696         6.28924         0.19620
   C       15.23756         5.58383        -0.96140
   C       16.13736         5.87369        -2.00319
   C       16.23787         5.12284        -3.14637
   C       17.10596         5.32787        -4.24646
   C       16.99053         4.39961        -5.23679
   C       16.02489         3.40157        -4.98014
   S       15.25452         3.69175        -3.43374
   C       15.68622         2.31433        -5.75858
   C       16.22053         1.92268        -7.00585
   C       15.68699         0.77239        -7.49721
   C       14.69295         0.17194        -6.67513
   S       14.46129         1.17171        -5.24570
   C       14.07444        -1.01473        -6.95721
   C       13.08586        -1.74288        -6.23099
   C       12.78035        -3.05257        -6.66442
   C       11.85419        -3.80481        -5.99323
   C       11.21411        -3.28578        -4.84792
   C       11.48429        -1.98942        -4.42327
   C       12.40362        -1.23263        -5.11237
   C       10.37129        -4.30436        -4.28428
   C       10.48323        -5.46838        -5.06921
   C       11.38727        -5.21957        -6.25982
   C       12.55744        -6.21266        -6.31328
   C       13.36121        -6.22883        -5.01796
   C       10.50207        -5.31007        -7.52432
   C       11.17071        -4.91901        -8.83557
   C        9.79959        -6.60479        -4.73176
   C        8.97454        -6.62291        -3.58680
   C        8.87395        -5.44649        -2.81891
   C        9.55809        -4.30203        -3.15493
   C        8.28260        -7.82765        -3.26421
   C        7.43757        -8.03308        -2.21056
   C        6.78350        -9.23912        -1.94494
   S        6.98884       -10.64380        -2.96411
   C        5.88003       -11.60094        -2.00261
   C        5.40464       -10.89414        -0.92775
   C        5.88772        -9.52811        -0.87965
   C        5.50251        -8.63453         0.08349
   S        4.41385        -8.99157         1.37571
   C        4.13034       -10.69018         1.15180
   C        4.59221       -11.41985         0.12643
   C        5.61409       -12.94708        -2.44240
   C        4.47433       -13.61513        -2.28445
   H        4.52063         1.22500         9.85507
   H        3.08686        -0.68111         8.53081
   H        4.54175        -1.30121         4.22025
   H        6.20807         0.40912         4.65206
   H        7.64014         1.92887         5.19589
   H        8.32558         3.68640         7.59863
   H        9.18146         2.73952         4.01224
   H       11.88371         6.29121         6.18838
   H       10.04966         5.20157         7.41229
   H        9.32931         3.46346         1.52337
   H       10.54848         4.00132         0.36605
   H        9.21072         5.77420         2.46706
   H        8.84483         5.75985         0.74006
   H       10.42473         6.30852         1.30392
   H       12.10758         2.28312         1.19454
   H       10.88600         1.73671         2.34495
   H       13.70525         2.66606         3.07388
   H       13.14696         0.99228         3.03054
   H       12.48602         2.11394         4.22343
   H       13.09686         4.48280         0.29109
   H       15.15109         7.50480         2.53571
   H       13.67734         7.11171         4.46394
   H       15.82242         7.12454         0.33820
   H       14.59808         4.72629        -1.12301
   H       16.79168         6.72988        -1.90410
   H       17.79129         6.15727        -4.26767
   H       17.57365         4.40302        -6.14072
   H       16.98549         2.49494        -7.50002
   H       15.97733         0.32188        -8.43057
   H       14.41544        -1.49117        -7.87012
   H       13.31358        -3.45356        -7.51423
   H       10.98373        -1.58183        -3.55750
   H       12.59877        -0.22430        -4.78588
   H       13.21904        -5.94358        -7.13783
   H       12.16355        -7.21226        -6.50961
   H       13.76758        -5.24175        -4.80840
   H       14.18712        -6.93253        -5.09618
   H       12.73373        -6.52504        -4.18039
   H        9.63266        -4.66539        -7.36961
   H       10.13921        -6.33767        -7.60137
   H       11.45749        -3.87121        -8.82568
   H       10.47117        -5.06994        -9.65540
   H       12.05107        -5.52634        -9.02894
   H        9.88376        -7.50270        -5.32791
   H        8.24611        -5.44041        -1.94106
   H        9.46720        -3.41233        -2.54900
   H        8.45015        -8.66291        -3.93426
   H        7.24060        -7.22780        -1.51796
   H        5.84777        -7.61608         0.10196
   H        3.53164       -11.11491         1.94031
   H        4.37394       -12.47713         0.10642
   H        6.42600       -13.40565        -2.99404
   H        3.60852       -13.18178        -1.81457
   H        4.36532       -14.61929        -2.65585
*
