# ORCA input file
# SCF done       -196.874253006409          0.000825068843
! CAM-B3LYP def2-SVP def2/J RIJCOSX Grid4 TightSCF
%maxcore 5000
%tddft
    Mode sTDDFT
    Ethresh 5.0
    maxcore 5000
end

%pal
  nprocs 6
  end
* xyz 0 1
   C       -1.03340         0.92034         0.61123
   C       -0.50472         0.79728        -0.64713
   C        0.71803         0.15135        -0.92393
   N        1.70864        -0.35683        -1.20347
   C       -1.14571         1.21047        -1.83550
   N       -1.62877         1.47033        -2.84386
   C       -0.47901         0.33605         1.82536
   C       -1.43852         0.45751         2.85906
   C       -1.21958        -0.01545         4.13004
   C        0.00984        -0.62718         4.39610
   C        0.96634        -0.73482         3.35850
   C        0.74143        -0.26457         2.07054
   S        2.41965        -1.51301         3.90724
   C        1.73152        -1.68257         5.50044
   C        0.47850        -1.18300         5.61805
  Br        2.73311        -2.50049         6.85886
   C       -2.63720         1.15682         2.34868
   O       -3.65414         1.36032         2.97816
   C       -2.29645         1.54853         0.95725
   C       -2.93147         2.46798         0.16603
   C       -4.15547         3.12257         0.38767
   O       -4.99808         2.76087         1.40390
   C       -6.04795         3.56828         1.31955
   C       -7.26936         3.83061         1.94644
   C       -7.84137         3.16844         3.13503
   O       -8.94461         3.42779         3.57706
   N       -7.01702         2.25210         3.68396
   C       -7.82093         4.89271         1.19987
   O       -6.98473         5.27577         0.17534
   C       -5.90624         4.46559         0.24377
   C       -4.68932         4.18096        -0.36497
   C       -9.05071         5.53166         1.39748
   C       -9.50865         6.58231         0.63849
   C      -10.73833         7.27714         0.76178
   C      -10.90031         8.29688        -0.13122
   C       -9.80393         8.46407        -1.00239
   S       -8.56905         7.26766        -0.66372
   C       -9.55192         9.38290        -2.00731
   C      -10.29131        10.45630        -2.54688
   C       -9.63423        11.13125        -3.53810
   C       -8.33846        10.63603        -3.83411
   S       -8.00627         9.26421        -2.80201
   C       -7.41323        11.08722        -4.75145
   C       -6.15120        10.47602        -4.87911
   O       -5.91307         9.41995        -4.03420
   C       -4.67680         8.99388        -4.28957
   C       -3.76117         8.02722        -3.87661
   C       -3.97642         7.00060        -2.83099
   O       -3.18719         6.11445        -2.56882
   N       -5.16025         7.14311        -2.19941
   C       -2.62811         8.27634        -4.67253
   O       -2.84788         9.31851        -5.54516
   C       -4.09316         9.76044        -5.30796
   C       -5.03652        10.71606        -5.69496
   C       -1.41258         7.56445        -4.65926
   C       -0.23970         7.88464        -5.27463
   C        0.21786         9.10718        -5.89739
   C       -0.10902        10.38227        -5.51462
   C        0.42394        11.54137        -6.11166
   N        0.81400        12.51288        -6.58312
   C       -0.93321        10.67666        -4.40874
   N       -1.54666        10.96733        -3.48287
   C        1.29838         8.74918        -6.81043
   C        1.66573         7.40083        -6.56933
   C        0.78061         6.82941        -5.53127
   O        0.84091         5.73402        -5.02811
   C        2.69061         6.78522        -7.24552
   C        3.37582         7.53042        -8.21135
   C        2.99122         8.87096        -8.45367
   C        1.96068         9.49798        -7.76361
   S        3.96409         9.60060        -9.69428
   C        4.86591         8.11760        -9.86491
   C        4.45948         7.12532        -9.03839
  Br        6.25610         8.02102       -11.11961
   H       -1.97118         0.08598         4.89723
   H        1.50170        -0.36504         1.31411
   H       -0.09252        -1.20341         6.52826
   H       -2.44117         2.78473        -0.74517
   H       -6.09445         2.05559         3.32889
   H       -7.32971         1.76224         4.50537
   H       -4.19710         4.63862        -1.20269
   H       -9.64795         5.14404         2.21031
   H      -11.45967         6.99891         1.50924
   H      -11.76786         8.93083        -0.17970
   H      -11.27809        10.70640        -2.19935
   H      -10.04084        11.97743        -4.06361
   H       -7.64461        11.92988        -5.38201
   H       -5.80787         7.87692        -2.42448
   H       -5.42297         6.49804        -1.47345
   H       -4.95217        11.48146        -6.43715
   H       -1.45593         6.61108        -4.14266
   H        2.95587         5.76076        -7.03676
   H        1.69771        10.51965        -7.98335
   H        4.90337         6.14698        -9.01090
*
