# ORCA input file
# SCF done       -221.358728122305          0.000335339908
! CAM-B3LYP def2-SVP def2/J RIJCOSX Grid4 TightSCF
%maxcore 5000
%tddft
    Mode sTDDFT
    Ethresh 5.0
    maxcore 5000
end

%pal
  nprocs 6
  end
* xyz 0 1
   C       -2.15447        -1.02557        -0.44015
   C       -2.28643        -2.04246        -1.35038
   C       -1.47631        -3.19670        -1.36895
   N       -0.84099        -4.15014        -1.44322
   C       -3.24916        -2.09054        -2.38053
   N       -4.00956        -2.21949        -3.23133
   C       -1.22408        -1.00313         0.68184
   C       -1.44840         0.17495         1.43521
   C       -0.73081         0.48099         2.56580
   C        0.25446        -0.42217         2.97693
   C        0.47550        -1.59488         2.21581
   C       -0.24877        -1.90265         1.07083
   S        1.74730        -2.56513         2.89344
   C        1.95945        -1.40033         4.17352
   C        1.12302        -0.33816         4.09936
  Br        3.27107        -1.69204         5.48056
   C       -2.51324         0.97168         0.79990
   O       -2.84360         2.09730         1.11477
   C       -2.96618         0.17315        -0.36916
   C       -3.86768         0.60124        -1.30040
   C       -4.80903         1.64399        -1.09063
   C       -5.39178         1.90145         0.16990
   C       -6.20230         3.07049         0.40508
   N       -6.66969         3.29805         1.64152
   C       -6.36939         2.47587         2.61494
   C       -5.65708         1.26167         2.34902
   N       -5.21959         1.00006         1.14526
   C       -5.44120         0.31184         3.37763
   N       -5.24198        -0.42358         4.23312
   C       -6.81151         2.76816         3.92853
   N       -7.13768         2.98475         5.00524
   C       -6.52398         3.98557        -0.62794
   C       -6.10637         3.60887        -1.92386
   C       -5.25310         2.46208        -2.14708
   N       -4.90055         2.33951        -3.42564
   S       -5.58100         3.52198        -4.26979
   N       -6.33433         4.26554        -3.06633
   C       -7.15413         5.26161        -0.36857
   C       -7.94371         5.87351        -1.35959
   C       -8.47557         7.11437        -1.12881
   C       -8.25080         7.78073         0.09184
   C       -7.48602         7.17938         1.08376
   C       -6.94064         5.93718         0.84520
   C       -8.87126         9.07975         0.02760
   C       -9.46966         9.23067        -1.23812
   C       -9.30294         7.97209        -2.05737
   C       -8.55811         8.24410        -3.37703
   C       -7.18614         8.87195        -3.16289
   C      -10.66596         7.32036        -2.35978
   C      -11.47353         7.02145        -1.10262
   C      -10.07686        10.41087        -1.58320
   C      -10.10257        11.47872        -0.66837
   C       -9.53756        11.29487         0.60422
   C       -8.92481        10.11279         0.95616
   C      -10.68610        12.72314        -1.09343
   C      -10.68332        13.87999        -0.39747
   C      -11.16328        15.13521        -0.86839
   S      -10.22446        16.50915        -0.36255
   C      -10.99731        17.58509        -1.47089
   C      -12.00587        16.90582        -2.17558
   C      -12.14268        15.52535        -1.79218
   C      -13.25947        14.81722        -2.31623
   C      -13.74591        13.49691        -1.78464
   F      -13.41075        13.25290        -0.51204
   F      -15.09135        13.42972        -1.81600
   F      -13.33025        12.43588        -2.51011
   C      -14.03684        15.39027        -3.29399
   C      -13.79744        16.69259        -3.75632
   C      -12.82808        17.45757        -3.17325
   C      -10.59614        18.93319        -1.60085
   C       -9.60202        19.49973        -0.87027
   C       -9.14922        20.84355        -0.97469
   C       -9.59896        21.86112        -1.81784
   C       -8.82917        23.02823        -1.57464
   C       -8.86628        24.28601        -2.13960
   C       -7.94641        25.23492        -1.67452
   C       -7.72287        26.56352        -2.03099
   C       -6.65491        27.08641        -1.24838
   C       -6.21331        26.07912        -0.40142
   C       -6.99231        24.90727        -0.63573
   C       -6.95331        23.65657        -0.06955
   C       -7.87396        22.70122        -0.53642
   C       -8.08331        21.37516        -0.18466
   C       -6.16378        28.43966        -1.36615
   C       -5.16956        28.96496        -0.65591
   H       -0.92603         1.38657         3.11853
   H       -0.03927        -2.80633         0.52330
   H        1.11715         0.47230         4.80512
   H       -3.88086         0.15825        -2.28784
   H       -8.12327         5.35695        -2.28790
   H       -7.29630         7.68625         2.01765
   H       -6.30302         5.49061         1.59030
   H       -9.16941         8.90734        -3.99237
   H       -8.44218         7.30031        -3.91312
   H       -7.27323         9.81550        -2.62820
   H       -6.70874         9.06227        -4.12130
   H       -6.54669         8.20725        -2.58664
   H      -10.49220         6.39279        -2.90918
   H      -11.23683         7.99144        -3.00478
   H      -10.92994         6.34548        -0.44612
   H      -12.41898         6.55518        -1.36958
   H      -11.68553         7.93660        -0.55437
   H      -10.53324        10.53858        -2.55421
   H       -9.57934        12.09600         1.32509
   H       -8.48704         9.99328         1.93584
   H      -11.10548        12.71741        -2.08938
   H      -10.16367        13.93359         0.54977
   H      -14.87636        14.84126        -3.69232
   H      -14.42359        17.09626        -4.53581
   H      -12.69132        18.48612        -3.46732
   H      -11.12361        19.52591        -2.33341
   H       -9.09038        18.88470        -0.13932
   H      -10.39275        21.78977        -2.53787
   H       -9.57571        24.53750        -2.91561
   H       -8.26442        27.11673        -2.77808
   H       -5.41849        26.15005         0.31725
   H       -6.24369        23.40400         0.70589
   H       -7.53863        20.82053         0.55864
   H       -6.67152        29.04743        -2.10493
   H       -4.63638        28.39911         0.08858
   H       -4.85416        29.98405        -0.79642
*
