# ORCA input file
# SCF done       -229.368452115325          0.000457608515
! CAM-B3LYP def2-SVP def2/J RIJCOSX Grid4 TightSCF
%maxcore 5000
%tddft
    Mode sTDDFT
    Ethresh 5.0
    maxcore 5000
end

%pal
  nprocs 6
  end
* xyz 0 1
   C       -9.30767       -15.12803        10.48525
   C       -9.40366       -15.75129        11.71784
   C       -9.02532       -17.09205        11.81453
   C       -9.11099       -17.74993        13.06641
   N       -9.18161       -18.27502        14.08133
   C       -8.55888       -17.80246        10.69191
   C       -8.18664       -19.16183        10.82017
   N       -7.87809       -20.26165        10.90294
   C       -8.45902       -17.16664         9.45314
   C       -8.83346       -15.84295         9.37196
   C       -8.80870       -14.95922         8.17987
   O       -8.42958       -15.29746         7.07849
   C       -9.25413       -13.63688         8.65974
   C       -9.63473       -13.77051        10.05193
   C      -10.30532       -12.84742        10.81341
   C      -10.66421       -13.04360        12.16356
   N      -10.97004       -13.14446        13.26502
   C      -10.78152       -11.60956        10.33760
   N      -11.23072       -10.60625        10.00368
   C       -9.16290       -12.42208         8.01520
   C       -8.98284       -12.11952         6.65402
   C       -8.99124       -12.98389         5.56340
   C       -8.73223       -12.23817         4.38342
   C       -8.61107       -12.77497         3.10078
   N       -8.43831       -13.21406         2.05243
   C       -8.52718       -10.90923         4.72866
   C       -8.66755       -10.78069         6.13686
   C       -8.50111        -9.57890         6.82577
   C       -7.64239        -8.44340         6.36445
   C       -7.92456        -7.36761         7.18057
   C       -8.87139        -7.77845         8.15651
   C       -9.18883        -9.12298         7.96036
   C       -9.39704        -6.94475         9.15206
   N       -9.80272        -6.24136         9.96345
   C       -6.62507        -8.44241         5.39020
   C       -6.03300        -9.52951         4.81340
   C       -5.14241        -9.50879         3.69808
   C       -4.89401       -10.71069         3.03752
   C       -4.12062       -10.72965         1.87736
   C       -3.79072       -11.78755         1.01230
   C       -4.34001       -13.14630         1.12288
   C       -5.71010       -13.20372         0.32904
   N       -6.30892       -14.48692         0.47398
   C       -3.44632       -14.30045         0.65519
   N       -3.79559       -15.48718         1.41224
   C       -2.95824       -11.22402        -0.02488
   C       -2.36540       -11.77395        -1.10544
   C       -1.50069       -10.97684        -2.01824
   C       -1.40242        -9.52456        -1.67409
   C       -2.01721        -8.98201        -0.60663
   C       -2.79405        -9.79114         0.25507
   C       -3.51418        -9.50181         1.40155
   C       -3.74182        -8.29945         2.10550
   C       -4.54594        -8.30613         3.20109
   C       -1.95688       -11.11962        -3.45327
   C       -1.13770       -11.43896        -4.45445
   C       -1.49124       -11.47151        -5.85869
   C       -0.70372       -10.90977        -6.81264
   C       -1.42155       -10.91011        -8.07290
   C       -0.92748       -10.36338        -9.26307
   N       -0.51185        -9.91219       -10.23360
   C       -2.63824       -11.50577        -7.88547
   C       -2.71807       -11.96436        -6.52594
   C       -3.64575       -12.84216        -6.00704
   C       -4.88799       -13.34289        -6.62868
   C       -5.58741       -14.02745        -5.66170
   C       -4.80216       -14.05972        -4.46046
   C       -3.63218       -13.37150        -4.67387
   C       -5.16608       -14.68390        -3.26547
   N       -5.44782       -15.15425        -2.25544
   C       -5.29372       -13.27795        -7.98986
   C       -6.58704       -13.39604        -8.40080
   C       -6.92850       -13.46956        -9.76392
   C       -8.15622       -13.67273       -10.33192
   C       -8.32379       -13.37512       -11.77645
   O       -7.44896       -13.16098       -12.58245
   C       -9.78738       -13.34733       -12.00326
   C      -10.47296       -13.01449       -13.15170
   C      -11.86835       -13.01740       -13.10921
   C      -12.53731       -13.34460       -11.91449
   C      -11.83168       -13.69006       -10.75990
   C      -10.44837       -13.69870       -10.81023
   C       -9.44577       -14.04015        -9.79457
   C       -9.71656       -14.76120        -8.66056
   C       -8.75704       -15.31788        -7.79093
   N       -8.04654       -15.83103        -7.04895
   C      -11.01802       -15.13031        -8.25435
   N      -12.04896       -15.44923        -7.86463
   C      -13.95376       -13.31839       -11.88011
   N      -15.09762       -13.29549       -11.84113
   C      -12.61222       -12.68253       -14.26628
   N      -13.19685       -12.40771       -15.21171
   H       -9.75202       -15.23872        12.60024
   H       -8.10066       -17.69560         8.58305
   H       -9.22237       -11.55652         8.66100
   H       -9.16206       -14.04126         5.58535
   H       -8.39267       -10.09760         4.03877
   H       -7.47194        -6.39471         7.13582
   H       -9.95625        -9.63725         8.50758
   H       -6.28501        -7.45252         5.11015
   H       -6.27859       -10.51353         5.18846
   H       -5.33927       -11.62289         3.40829
   H       -4.59072       -13.34535         2.16829
   H       -5.48416       -12.97810        -0.71743
   H       -6.35295       -12.41979         0.73836
   H       -6.33078       -15.02952        -0.37873
   H       -7.18879       -14.46999         0.97176
   H       -2.39590       -14.06624         0.86127
   H       -3.56253       -14.44857        -0.43086
   H       -4.80841       -15.60221         1.38469
   H       -3.37072       -16.31161         1.00227
   H       -2.48878       -12.81716        -1.35452
   H       -0.48697       -11.40549        -1.95961
   H       -0.80564        -8.92366        -2.34309
   H       -1.92150        -7.92804        -0.39150
   H       -3.28136        -7.38431         1.76455
   H       -4.72031        -7.38486         3.73402
   H       -2.99960       -10.89559        -3.62977
   H       -0.08190       -11.58053        -4.25066
   H        0.26692       -10.47119        -6.67392
   H       -3.38924       -11.61759        -8.63980
   H       -6.51428       -14.55459        -5.79260
   H       -2.83010       -13.26853        -3.97192
   H       -4.52410       -13.22338        -8.74693
   H       -7.37340       -13.40632        -7.66249
   H       -6.13354       -13.28482       -10.48081
   H       -9.94475       -12.75721       -14.05719
   H      -12.37980       -13.92865        -9.86236
*
