# ORCA input file
# SCF done       -212.579364765182          0.000463895035
! CAM-B3LYP def2-SVP def2/J RIJCOSX Grid4 TightSCF
%maxcore 5000
%tddft
    Mode sTDDFT
    Ethresh 5.0
    maxcore 5000
end

%pal
  nprocs 6
  end
* xyz 0 1
   C       -4.87051         3.44272        -0.83560
   C       -4.15309         4.56978        -1.19669
   O       -3.54213         5.42943        -0.32948
   C       -3.82110         5.29524         1.04410
   C       -3.99686         4.85998        -2.56385
   C       -4.53817         4.02324        -3.51948
   C       -5.26669         2.89344        -3.14877
   C       -5.42789         2.61436        -1.79897
   O       -5.77395         2.15164        -4.17150
   C       -6.53204         1.00917        -3.85652
   C       -3.26045         6.07028        -2.94474
   C       -2.09986         6.03478        -3.71352
   C       -1.37365         4.86963        -4.27676
   O       -1.62956         3.69748        -4.18074
   N       -0.26962         5.40848        -4.94970
   C       -0.20683         6.80347        -4.84048
   O        0.65472         7.49209        -5.32190
   C       -1.38232         7.19421        -4.03407
   C       -1.76695         8.44492        -3.59366
   C       -2.92758         8.49328        -2.82835
   C       -3.66664         7.34782        -2.52523
   C       -4.90432         7.61343        -1.77178
   O       -5.78854         6.86638        -1.48107
   S       -4.96132         9.37080        -1.35672
   C       -3.46300         9.74693        -2.26816
   O       -3.00845        10.84682        -2.37184
   C        0.71584         4.72286        -5.65654
   C        0.74608         3.40344        -5.87154
   C        1.77436         2.69349        -6.60151
   C        1.65316         1.32631        -6.74181
   C        2.63637         0.58760        -7.42432
   C        2.75302        -0.77837        -7.67672
   C        1.77695        -1.83522        -7.29049
   C        1.45241        -2.80568        -8.45578
   N        2.33478        -3.95605        -8.48577
   C        2.27392        -2.59394        -6.04493
   N        1.32910        -3.63817        -5.68008
   C        3.98945        -0.96207        -8.39719
   C        4.58782        -2.08266        -8.84886
   C        5.86527        -2.01343        -9.61317
   C        6.41743        -0.63927        -9.80030
   C        5.82257         0.46244        -9.30190
   C        4.60628         0.35198        -8.58971
   C        3.77878         1.28735        -7.98491
   C        3.87556         2.68606        -7.84058
   C        2.90360         3.36137        -7.16907
   C        5.61772        -2.73979       -10.91477
   C        5.41337        -2.11176       -12.06716
   C        5.23465        -2.77288       -13.35051
   C        5.93092        -2.29278       -14.46201
   C        6.83786        -1.12447       -14.56179
   O        7.15870        -0.35357       -13.68758
   N        7.26331        -1.08702       -15.88697
   C        6.73404        -2.14053       -16.64438
   O        6.96105        -2.33718       -17.80986
   C        5.87449        -2.90784       -15.71724
   C        5.11436        -4.03870       -15.93898
   C        4.37766        -4.50483       -14.85544
   C        4.41355        -3.89252       -13.59300
   C        3.46410        -4.47097       -12.63507
   O        3.18297        -4.11038       -11.52618
   S        2.64443        -5.88634       -13.39340
   C        3.48814        -5.66861       -14.96328
   O        3.31526        -6.37891       -15.90899
   C        8.11590        -0.15712       -16.49104
   C        8.60891         0.92899       -15.88955
   C        9.48105         1.93232       -16.46806
   C       10.03877         1.87170       -17.76144
   O        9.74593         0.78490       -18.53014
   C       10.29661         0.68744       -19.82153
   C       10.86087         2.90879       -18.19189
   C       11.13537         3.99116       -17.38214
   C       10.59347         4.06786       -16.10098
   C        9.77896         3.03744       -15.66290
   O       10.92107         5.17604       -15.37477
   C       10.39366         5.30566       -14.07768
   H       -5.01522         3.19247         0.20305
   H       -3.31245         6.12679         1.52980
   H       -3.43279         4.35308         1.44380
   H       -4.89568         5.36363         1.23712
   H       -4.42558         4.24381        -4.56854
   H       -5.98761         1.75325        -1.47044
   H       -6.83558         0.58479        -4.81224
   H       -7.42420         1.26583        -3.27612
   H       -5.93917         0.27131        -3.30616
   H       -1.20571         9.33706        -3.82126
   H        1.46834         5.40615        -6.02572
   H       -0.04882         2.79004        -5.47371
   H        0.79818         0.82072        -6.31619
   H        0.84042        -1.33609        -7.01794
   H        1.56287        -2.26567        -9.39970
   H        0.39711        -3.09938        -8.35544
   H        2.26096        -4.42773        -9.37962
   H        2.07845        -4.59647        -7.74217
   H        2.44234        -1.85595        -5.24217
   H        3.22964        -3.06911        -6.27390
   H        0.43453        -3.22895        -5.42862
   H        1.66887        -4.15203        -4.87431
   H        4.11897        -3.05153        -8.71717
   H        6.61219        -2.60659        -9.06131
   H        7.33415        -0.57098       -10.36603
   H        6.26047         1.43913        -9.44801
   H        4.72197         3.20940        -8.26039
   H        2.98418         4.43064        -7.05828
   H        5.59072        -3.81740       -10.84892
   H        5.49433        -1.03442       -12.11591
   H        5.07247        -4.53154       -16.89692
   H        8.31948        -0.41283       -17.51811
   H        8.34020         1.11380       -14.85942
   H        9.97098         1.51225       -20.46315
   H        9.91954        -0.25116       -20.22562
   H       11.39041         0.65484       -19.79336
   H       11.29950         2.88270       -19.17623
   H       11.77146         4.79019       -17.72689
   H        9.34459         3.06509       -14.67595
   H       10.77752         6.25108       -13.69742
   H       10.72591         4.49211       -13.42442
   H        9.29926         5.33887       -14.08929
*
