# ORCA input file
# SCF done       -216.195104128773          0.000476194940
! CAM-B3LYP def2-SVP def2/J RIJCOSX Grid4 TightSCF
%maxcore 5000
%tddft
    Mode sTDDFT
    Ethresh 5.0
    maxcore 5000
end

%pal
  nprocs 6
  end
* xyz 0 1
   C        0.82381       -13.12674        14.12186
   C        0.30420       -12.32395        13.11730
   C        1.15414       -11.70187        12.12385
   N        0.59027       -11.02764        11.11134
   C       -0.70827       -10.87095        11.06853
   C       -1.53724       -11.38282        12.12954
   N       -1.02936       -12.09997        13.08885
   C       -2.93226       -11.12311        12.10357
   N       -4.05172       -10.89233        12.03912
   C       -1.27717       -10.19231         9.96572
   N       -1.75146        -9.64338         9.07825
   C        2.56482       -11.83086        12.17157
   C        3.06736       -12.68588        13.17117
   C        2.20019       -13.32384        14.14017
   N        2.89697       -14.06553        15.01091
   S        4.45195       -13.96462        14.65061
   N        4.35190       -12.98756        13.38669
   C        3.42595       -11.18742        11.22833
   C        4.56722       -11.72439        10.67536
   C        4.99877       -10.86533         9.61964
   C        6.07083       -11.07251         8.75256
   N        6.90297       -11.22525         7.97270
   C        4.11135        -9.79994         9.51294
   C        3.11846        -9.95183        10.50475
   C        2.07167        -9.07722        10.77903
   C        1.41927        -8.19179         9.78595
   C        0.55285        -7.37604        10.47140
   C        0.63110        -7.70558        11.86462
   C        1.53095        -8.74128        12.04615
   C       -0.10210        -7.07931        12.87995
   N       -0.70675        -6.57730        13.71719
   C        1.66224        -8.31751         8.39895
   C        1.32106        -7.42117         7.43563
   C        1.77376        -7.47068         6.07944
   C        2.69811        -8.40918         5.63037
   C        3.21846        -8.32732         4.33791
   C        4.19530        -9.10252         3.69640
   C        4.88304       -10.28404         4.26436
   C        4.52083       -11.56782         3.48003
   N        3.15252       -11.94258         3.76264
   C        6.42198       -10.12600         4.32974
   N        7.00188       -11.31474         4.91199
   C        4.38114        -8.52571         2.38580
   C        5.20425        -8.84502         1.36486
   C        5.23848        -8.05440         0.10460
   C        4.28834        -6.90414         0.06220
   C        3.45953        -6.60214         1.07971
   C        3.47619        -7.37444         2.26445
   C        2.77314        -7.26802         3.45234
   C        1.79759        -6.35279         3.90374
   C        1.32592        -6.45473         5.17445
   C        4.97761        -8.98186        -1.06144
   C        5.91398        -9.33066        -1.94564
   C        5.70592       -10.21333        -3.06354
   C        4.72481       -11.14434        -3.21942
   C        4.98048       -11.88939        -4.43711
   C        4.14284       -12.87680        -4.96927
   N        3.45251       -13.67161        -5.42763
   C        6.15385       -11.44907        -4.98956
   C        6.64966       -10.36893        -4.18673
   C        7.74237        -9.58334        -4.48309
   C        8.86497        -9.96144        -5.37049
   C        9.64336        -8.84412        -5.54883
   C        9.06706        -7.76505        -4.79683
   C        7.95124        -8.21931        -4.12439
   C        9.57693        -6.46091        -4.75025
   N        9.99957        -5.39440        -4.70230
   C        9.11659       -11.30005        -5.75793
   C        9.98978       -11.70823        -6.71776
   C       10.19938       -13.05745        -7.12074
   C        9.51256       -14.20167        -6.62715
   C        9.80190       -15.53021        -7.12636
   N        9.13744       -16.59871        -6.63014
   C        8.23930       -16.41778        -5.70148
   C        7.94272       -15.10198        -5.21076
   N        8.57537       -14.05387        -5.68247
   C        6.98535       -14.88126        -4.19196
   N        6.23650       -14.68013        -3.34772
   C        7.54980       -17.53516        -5.16235
   N        6.97918       -18.40728        -4.68824
   C       10.75729       -15.75724        -8.10978
   C       11.43830       -14.65422        -8.60956
   C       11.16209       -13.31982        -8.12295
   N       11.92340       -12.40689        -8.73110
   S       12.87419       -13.14355        -9.79100
   N       12.39094       -14.64931        -9.55144
   H        0.17772       -13.56287        14.86386
   H        5.02828       -12.65423        10.94677
   H        4.24352        -8.94484         8.87639
   H       -0.11497        -6.64288        10.06198
   H        1.82939        -9.15997        12.98974
   H        2.20372        -9.20726         8.11421
   H        0.72455        -6.56198         7.71055
   H        3.04637        -9.19255         6.28433
   H        4.53726       -10.43538         5.29176
   H        5.26320       -12.32555         3.77461
   H        4.60644       -11.38904         2.40708
   H        3.06037       -12.30352         4.70504
   H        2.81786       -12.64353         3.11441
   H        6.64188        -9.20535         4.89386
   H        6.82399       -10.00797         3.32190
   H        6.85214       -11.35163         5.91759
   H        7.99871       -11.36109         4.74581
   H        5.86919        -9.69576         1.40043
   H        6.26266        -7.66726        -0.01224
   H        4.28845        -6.32643        -0.84963
   H        2.78090        -5.76491         1.00962
   H        1.44526        -5.57531         3.24249
   H        0.59005        -5.75139         5.53556
   H        3.96335        -9.34213        -1.14211
   H        6.91839        -8.94365        -1.83166
   H        3.90423       -11.34736        -2.55818
   H        6.55793       -11.76515        -5.93152
   H       10.55894        -8.77256        -6.10467
   H        7.28177        -7.60834        -3.54962
   H        8.56080       -12.05728        -5.22808
   H       10.57549       -10.98284        -7.26667
   H       10.95414       -16.75581        -8.45976
*
