# ORCA input file
# SCF done       -215.220993393441          0.000791122939
! CAM-B3LYP def2-SVP def2/J RIJCOSX Grid4 TightSCF
%maxcore 5000
%tddft
    Mode sTDDFT
    Ethresh 5.0
    maxcore 5000
end

%pal
  nprocs 6
  end
* xyz 0 1
   C       13.92624         9.89879        -4.33861
   S       12.67246         9.28436        -5.33107
   C       11.47003         9.96169        -4.27370
   C       12.04254        10.62956        -3.22451
   C       13.46071        10.60271        -3.27130
   C       14.32106        11.31496        -2.27543
   C       13.51880        11.75390        -1.05080
   C       12.18782        12.38203        -1.47246
   C       12.38259        13.58703        -2.35924
   O       13.37226        14.25823        -2.41760
   C       11.29612        11.33069        -2.13565
   C       10.06404         9.76863        -4.57774
   C        9.19786         9.06934        -3.73298
   C        9.47114         8.40306        -2.43969
   O       10.49964         8.36227        -1.81027
   N        8.26552         7.80748        -2.05899
   C        7.24058         8.04155        -2.98638
   O        6.11041         7.64559        -2.87456
   C        7.85770         8.83705        -4.06805
   C        7.30351         9.27693        -5.25382
   C        8.14966         9.98995        -6.09575
   C        9.48434        10.24199        -5.77062
   C       10.18376        11.10413        -6.73802
   O       11.27521        11.58230        -6.65983
   S        9.07796        11.44145        -8.12340
   C        7.70988        10.54372        -7.38977
   O        6.63319        10.44216        -7.89684
   C        8.01166         7.05400        -0.91527
   C        8.92495         6.65817        -0.02309
   C        8.64623         5.84436         1.14166
   C        9.70504         5.24674         1.79244
   C        9.48834         4.40095         2.89820
   C       10.35331         3.64887         3.69365
   C       11.83367         3.59608         3.74049
   C       12.55195         3.65886         2.38657
   N       13.94351         3.28536         2.57056
   C       12.37278         4.71976         4.69494
   N       12.03263         6.06842         4.34576
   C        9.52970         2.97454         4.67594
   C        9.85536         2.11051         5.65491
   C        8.82429         1.58285         6.59557
   C        7.43402         2.05396         6.33314
   C        7.12082         2.87066         5.30825
   C        8.13553         3.35548         4.45071
   C        8.11960         4.20663         3.35689
   C        7.05643         4.85440         2.69506
   C        7.31456         5.64257         1.61754
   C        9.35099         1.95549         7.96079
   C        8.90289         2.97252         8.68600
   C        9.53539         3.36747         9.93748
   C       10.91577         3.54812        10.04869
   C       11.97139         3.49209         9.00871
   O       11.85845         3.26646         7.82551
   N       13.16568         3.77353         9.66480
   C       12.97663         4.02686        11.03144
   O       13.85838         4.28344        11.80884
   C       11.52175         3.90896        11.26035
   C       10.79550         4.11722        12.41718
   C        9.41705         3.96605        12.31271
   C        8.79982         3.60459        11.11050
   C        7.34037         3.46862        11.19581
   O        6.57312         3.14889        10.33361
   S        6.81650         3.85893        12.87271
   C        8.49549         4.16575        13.44238
   O        8.76435         4.47578        14.56407
   C       14.45253         3.79892         9.12105
   C       14.72721         3.69061         7.81548
   C       16.02062         3.68827         7.20042
   S       16.05822         3.31348         5.49535
   C       17.76362         3.44599         5.46359
   C       18.28534         3.77248         6.67973
   C       17.29207         3.91919         7.68169
   C       17.64223         4.26893         9.09431
   C       19.09434         4.72769         9.22972
   C       20.05454         3.82968         8.43252
   C       19.90168         2.40406         8.89591
   O       20.51967         1.90485         9.79275
   C       19.74627         3.97006         6.94193
   H       14.94653         9.70662        -4.60583
   H       14.75173        12.19728        -2.75704
   H       15.15057        10.67326        -1.97126
   H       14.10245        12.47662        -0.47970
   H       13.31166        10.89297        -0.41258
   H       11.66893        12.76455        -0.58256
   H       11.48524        13.83861        -2.96084
   H       10.38102        11.78369        -2.52685
   H       11.00634        10.58767        -1.38624
   H        6.27638         9.08486        -5.51929
   H        6.96455         6.79186        -0.84966
   H        9.96114         6.92045        -0.17709
   H       10.70411         5.41565         1.42347
   H       12.12827         2.65408         4.21451
   H       12.55353         4.67856         1.99519
   H       12.01288         3.01979         1.66587
   H       14.02037         2.32276         2.88068
   H       14.45674         3.37551         1.70163
   H       13.46116         4.63090         4.69687
   H       11.98695         4.51950         5.69769
   H       11.02904         6.20556         4.30659
   H       12.43713         6.33897         3.45814
   H       10.87516         1.80664         5.83941
   H        8.83240         0.48336         6.53367
   H        6.67838         1.69633         7.01555
   H        6.09883         3.17625         5.13917
   H        6.04597         4.71403         3.04890
   H        6.50211         6.14290         1.11567
   H       10.19378         1.37047         8.30083
   H        8.02611         3.52892         8.38724
   H       11.26185         4.39132        13.34983
   H       15.19734         3.91233         9.89228
   H       13.90919         3.56853         7.12124
   H       18.29413         3.27825         4.54719
   H       17.47683         3.39310         9.73051
   H       16.98372         5.06470         9.45078
   H       19.37725         4.72558        10.28312
   H       19.19421         5.74796         8.85292
   H       21.08084         4.14747         8.64171
   H       19.13837         1.82739         8.33647
   H       20.33066         3.25485         6.35836
   H       20.03778         4.97280         6.61426
*
