# ORCA input file
# SCF done       -222.250559521149          0.000648523450
! CAM-B3LYP def2-SVP def2/J RIJCOSX Grid4 TightSCF
%maxcore 5000
%tddft
    Mode sTDDFT
    Ethresh 5.0
    maxcore 5000
end

%pal
  nprocs 6
  end
* xyz 0 1
   C       -6.37438       -17.41442         9.27039
   C       -5.92960       -18.46575         8.48167
   C       -4.99361       -18.26294         7.47851
   C       -4.46703       -17.00184         7.24019
   C       -4.90573       -15.94569         8.01943
   C       -5.86669       -16.14708         9.03567
   C       -6.15586       -14.86593         9.67159
   C       -6.97405       -14.67711        10.75789
   C       -7.64828       -15.71539        11.43168
   N       -8.22795       -16.50784        12.02747
   C       -7.23175       -13.43926        11.37918
   N       -7.48409       -12.46575        11.93585
   C       -5.43601       -13.85405         8.91982
   C       -4.51636       -14.54419         8.03421
   C       -3.33411       -14.03891         7.55362
   C       -2.83686       -12.77174         7.92009
   N       -2.37721       -11.77407         8.25537
   C       -2.44671       -14.75513         6.72968
   N       -1.70281       -15.28172         6.03050
   C       -5.68686       -12.50326         8.99336
   C       -5.43401       -11.51219         8.03488
   S       -5.18219       -11.86801         6.34296
   C       -5.08696       -10.17818         5.95167
   C       -5.24101        -9.38541         7.08983
   C       -5.46709       -10.12935         8.25204
   C       -5.62096        -9.54990         9.62061
   C       -4.28859        -9.59746        10.37369
   C       -5.20245        -7.88828         7.03962
   C       -6.58361        -7.31599         6.71190
   C       -4.85092        -9.75804         4.62313
   C       -4.63332       -10.60150         3.57919
   C       -4.32948       -10.16924         2.26676
   C       -4.02429       -11.03242         1.26556
   C       -3.60788       -10.70599        -0.06696
   C       -3.15679       -11.72132        -0.88632
   C       -2.64138       -11.43565        -2.16353
   C       -2.07184       -12.25937        -3.12402
   C       -1.93387       -13.74354        -3.05150
   C       -2.55700       -14.43893        -4.27600
   N       -2.94933       -15.78764        -3.91615
   C       -0.46092       -14.14601        -2.85166
   N       -0.35201       -15.56680        -2.55402
   C       -1.63994       -11.40062        -4.20135
   C       -0.95407       -11.65184        -5.33160
   C       -0.57307       -10.57305        -6.28233
   C       -1.08359        -9.21015        -5.91845
   C       -1.75075        -8.96954        -4.77659
   C       -2.02717       -10.02017        -3.86729
   C       -2.61905       -10.05198        -2.62393
   C       -3.14188        -9.03592        -1.78751
   C       -3.61000        -9.35408        -0.55692
   C       -0.96839       -10.90652        -7.69620
   C       -1.99404       -11.70348        -8.01160
   C       -2.35656       -12.05156        -9.35265
   S       -1.46423       -11.42509       -10.69854
   C       -2.44012       -12.32986       -11.82297
   C       -3.41528       -13.07091       -11.15919
   C       -3.36633       -12.91136        -9.76151
   C       -4.26591       -13.60359        -8.78195
   C       -3.60514       -14.85438        -8.19861
   C       -4.35987       -13.97160       -11.89278
   C       -3.69969       -15.31115       -12.23122
   C       -2.17422       -12.27928       -13.20771
   C       -1.13587       -11.59863       -13.76975
   C       -0.83196       -11.65218       -15.14146
   C        0.23748       -11.00710       -15.69708
   C        0.61557       -11.02160       -17.05384
   C        0.31441       -11.93410       -18.03774
   C        0.37868       -11.63742       -19.46248
   C        1.00011       -10.57800       -20.07176
   C        1.74806        -9.56948       -19.42907
   N        2.37561        -8.71104       -18.99426
   C        1.01503       -10.36565       -21.46650
   N        1.07195       -10.12745       -22.58825
   C       -0.35976       -12.69098       -20.14892
   C       -0.73443       -13.67243       -19.20480
   C       -1.46944       -14.78053       -19.59188
   C       -1.82625       -14.90612       -20.92610
   C       -1.45126       -13.94831       -21.85673
   C       -0.71647       -12.83369       -21.48033
   C       -0.19524       -13.29034       -17.90731
   C        0.01881       -14.15535       -16.86428
   C       -0.46391       -15.47818       -16.82201
   N       -0.86110       -16.54958       -16.70440
   C        0.79852       -13.86430       -15.72709
   N        1.45605       -13.71887       -14.79738
   H       -7.10290       -17.59234        10.04413
   H       -6.32285       -19.45625         8.65310
   H       -4.66875       -19.09592         6.87371
   H       -3.74237       -16.85220         6.45606
   H       -6.22747       -12.15670         9.86381
   H       -6.36986       -10.11097        10.18383
   H       -5.96511        -8.51796         9.55094
   H       -3.93898       -10.62299        10.46226
   H       -4.40728        -9.18002        11.37013
   H       -3.52911        -9.02998         9.84134
   H       -4.48347        -7.56382         6.28592
   H       -4.86505        -7.49943         8.00043
   H       -6.92776        -7.67862         5.74576
   H       -6.54455        -6.22975         6.68207
   H       -7.30899        -7.61600         7.46484
   H       -4.82198        -8.69137         4.44779
   H       -4.66084       -11.66966         3.75793
   H       -4.31031        -9.10123         2.10033
   H       -4.04423       -12.09130         1.49666
   H       -3.16707       -12.74132        -0.52881
   H       -2.49561       -14.10017        -2.18244
   H       -1.84597       -14.40481        -5.11807
   H       -3.45919       -13.89372        -4.57602
   H       -2.12817       -16.28244        -3.57767
   H       -3.30910       -16.28148        -4.72584
   H       -0.03360       -13.50537        -2.06117
   H        0.10235       -13.95633        -3.76938
   H       -0.79093       -15.76610        -1.66011
   H        0.62331       -15.83740        -2.48363
   H       -0.62572       -12.64644        -5.59716
   H        0.52941       -10.52074        -6.27105
   H       -0.87314        -8.42248        -6.62536
   H       -2.08548        -7.97056        -4.53677
   H       -3.15079        -8.01375        -2.13712
   H       -4.00385        -8.57834         0.08051
   H       -0.38329       -10.44290        -8.47870
   H       -2.58777       -12.14313        -7.22203
   H       -5.19783       -13.88793        -9.27135
   H       -4.51871       -12.91702        -7.97143
   H       -3.38156       -15.57115        -8.98483
   H       -4.26939       -15.32650        -7.47867
   H       -2.67462       -14.59815        -7.69754
   H       -4.68703       -13.48629       -12.81459
   H       -5.24715       -14.15443       -11.28607
   H       -2.81136       -15.16165       -12.84059
   H       -4.39421       -15.94372       -12.77843
   H       -3.40336       -15.83037       -11.32341
   H       -2.82991       -12.85076       -13.85139
   H       -0.47163       -11.03177       -13.13095
   H       -1.49960       -12.22533       -15.77351
   H        0.81085       -10.34939       -15.05670
   H        1.18049       -10.15352       -17.36836
   H       -1.77185       -15.52878       -18.87731
   H       -2.40398       -15.76157       -21.24131
   H       -1.73669       -14.06730       -22.89078
   H       -0.43877       -12.09869       -22.21736
*
