# ORCA input file
# SCF done       -216.614621939609          0.000773625920
! CAM-B3LYP def2-SVP def2/J RIJCOSX Grid4 TightSCF
%maxcore 5000
%tddft
    Mode sTDDFT
    Ethresh 5.0
    maxcore 5000
end

%pal
  nprocs 6
  end
* xyz 0 1
   C        1.18509        -6.28672         9.24156
   C        0.36638        -5.32840         9.77511
   C        0.88622        -4.26091        10.52051
   C        2.23762        -4.14843        10.73995
   C        3.10646        -5.14251        10.21518
   C        2.57399        -6.21462         9.45776
   N        3.39578        -7.17015         8.97952
   C        4.67274        -7.09803         9.23183
   C        5.21534        -6.01332         9.99281
   N        4.43133        -5.07593        10.44980
   C        6.67042        -5.92037        10.29830
   C        5.54973        -8.18178         8.70324
   C        2.89624        -3.04964        11.44281
   C        2.71295        -1.70266        11.14460
   C        1.75117        -1.04513        10.22354
   O        0.89531        -1.54631         9.53841
   N        2.03831         0.31958        10.28955
   C        3.10831         0.59857        11.15200
   O        3.54961         1.69738        11.36327
   C        3.54056        -0.70825        11.68705
   C        4.61608        -1.00061        12.50155
   C        4.80280        -2.34381        12.81427
   C        3.94218        -3.33522        12.34132
   C        4.20293        -4.67101        12.90001
   O        3.48797        -5.62706        12.95982
   S        5.81032        -4.62483        13.73464
   C        5.93269        -2.83843        13.61842
   O        6.81352        -2.20172        14.11514
   C        1.40666         1.35615         9.60365
   C        0.33090         1.22845         8.82031
   C       -0.32407         2.30831         8.11286
   C       -1.55052         2.06269         7.53398
   C       -2.23404         3.07847         6.83773
   C       -3.46568         3.09896         6.18973
   C       -4.49309         2.02916         6.07420
   C       -4.03619         0.91606         5.11014
   N       -4.06446         1.40722         3.74261
   C       -4.88849         1.42835         7.43481
   N       -6.10436         0.64741         7.27641
   C       -3.60355         4.41106         5.60295
   C       -4.56711         4.92916         4.81966
   C       -4.48909         6.33251         4.32225
   C       -3.28886         7.09440         4.77582
   C       -2.31841         6.54632         5.53290
   C       -2.42328         5.20230         5.95925
   C       -1.59704         4.38131         6.70952
   C       -0.33842         4.60644         7.30563
   C        0.27104         3.60281         7.99080
   C       -5.79775         6.97646         4.71061
   C       -5.92973         7.81849         5.72741
   C       -7.19472         8.42713         6.11451
   C       -7.26198         9.80396         6.32498
   C       -6.19035        10.81188         6.22937
   O       -5.02092        10.66635         5.96701
   N       -6.79610        12.04358         6.51021
   C       -8.16217        11.91560         6.77328
   O       -8.92560        12.80909         7.03844
   C       -8.45174        10.46723         6.65119
   C       -9.64168         9.78368         6.80078
   C       -9.58594         8.40346         6.63458
   C       -8.40076         7.72626         6.30369
   C       -8.54439         6.26580         6.26862
   O       -7.71340         5.42032         6.08252
   S      -10.26293         5.83608         6.59984
   C      -10.76539         7.54830         6.81262
   O      -11.88698         7.87931         7.06168
   C       -6.03018        13.20739         6.50443
   C       -6.48573        14.44191         6.73531
   C       -5.68010        15.64606         6.72713
   C       -6.31717        16.86018         6.92114
   C       -5.63059        18.07741         6.92641
   C       -4.27511        18.11536         6.73987
   C       -3.57518        16.91106         6.54355
   C       -4.26718        15.66770         6.53511
   N       -3.56680        14.53221         6.35033
   C       -2.27326        14.58364         6.17848
   C       -1.58569        15.83331         6.18337
   N       -2.23797        16.94952         6.36352
   C       -0.10812        15.91304         5.98793
   C       -1.55592        13.28958         5.98048
   H        0.79923        -7.11781         8.67271
   H       -0.70126        -5.38710         9.62758
   H        0.21256        -3.53006        10.93815
   H        6.97032        -6.75199        10.93484
   H        6.87898        -4.98871        10.81678
   H        7.25898        -5.96617         9.38369
   H        4.94161        -8.90455         8.16741
   H        6.06834        -8.68016         9.52052
   H        6.29958        -7.77094         8.02873
   H        5.28259        -0.23833        12.87211
   H        1.89169         2.30197         9.80245
   H       -0.11708         0.25344         8.69810
   H       -1.98554         1.07825         7.61534
   H       -5.39982         2.47251         5.64975
   H       -4.69096         0.04765         5.27879
   H       -3.00759         0.63083         5.34170
   H       -5.02410         1.53927         3.44007
   H       -3.63158         0.73896         3.11579
   H       -4.98588         2.24867         8.16499
   H       -4.11014         0.75050         7.78958
   H       -6.88172         1.25612         7.03963
   H       -6.33743         0.17376         8.14199
   H       -5.44573         4.36765         4.53945
   H       -4.46763         6.29113         3.22114
   H       -3.23385         8.12267         4.45236
   H       -1.45485         7.12565         5.82571
   H        0.13177         5.57388         7.20744
   H        1.23840         3.77285         8.43575
   H       -6.65621         6.66931         4.13043
   H       -5.06062         8.16571         6.26885
   H      -10.56764        10.27877         7.04583
   H       -4.98895        13.01601         6.28842
   H       -7.53490        14.59594         6.94377
   H       -7.38728        16.86628         7.07148
   H       -6.18355        18.99231         7.08029
   H       -3.71807        19.03869         6.73820
   H        0.17088        15.48763         5.02497
   H        0.40796        15.35234         6.76599
   H        0.20358        16.95272         6.02644
   H       -2.27019        12.47091         6.00228
   H       -0.81632        13.14264         6.76649
   H       -1.03479        13.28758         5.02412
*
