# ORCA input file
# SCF done       -213.285335388388          0.000747658934
! CAM-B3LYP def2-SVP def2/J RIJCOSX Grid4 TightSCF
%maxcore 5000
%tddft
    Mode sTDDFT
    Ethresh 5.0
    maxcore 5000
end

%pal
  nprocs 6
  end
* xyz 0 1
   C       -6.04498         1.04579         2.28553
   C       -6.11859         2.36672         2.69561
   C       -6.24000         3.35880         1.72089
   C       -6.32487         4.71628         2.11942
   N       -6.39427         5.80985         2.45050
   C       -6.28374         3.03658         0.35056
   C       -6.40575         4.06731        -0.61246
   N       -6.50775         4.88836        -1.40400
   C       -6.21344         1.70384        -0.05753
   C       -6.09820         0.73326         0.91488
   C       -6.02645        -0.73487         0.73088
   O       -6.05382        -1.31458        -0.33146
   C       -5.97885        -1.29975         2.09835
   C       -5.91220        -0.19777         3.04302
   C       -5.67544        -0.27928         4.38914
   C       -5.59710         0.83949         5.24770
   N       -5.52802         1.70802         5.99384
   C       -5.43157        -1.47164         5.10629
   N       -5.20199        -2.39307         5.75125
   C       -6.13152        -2.61017         2.46617
   C       -6.12626        -3.78862         1.69771
   C       -5.74263        -4.05877         0.38732
   C       -5.85283        -5.40703         0.08016
   C       -6.33751        -6.18313         1.15879
   S       -6.62598        -5.25885         2.54970
   C       -6.42693        -7.53155         0.73993
   C       -5.98863        -7.61877        -0.59376
   C       -5.61029        -6.28929        -1.05187
   C       -5.11929        -5.95581        -2.27842
   C       -4.93837        -6.92410        -3.29028
   N       -4.79583        -7.71479        -4.10791
   C       -4.74082        -4.63960        -2.62488
   N       -4.40832        -3.58490        -2.92426
   C       -6.03013        -8.92173        -1.08441
   C       -6.50838        -9.81622        -0.13964
   S       -6.90657        -9.03817         1.38168
   C       -6.65915       -11.21925        -0.31992
   C       -7.27751       -12.13987         0.51661
   C       -7.89873       -11.77087         1.71991
   N       -8.40583       -11.44196         2.69470
   C       -7.21855       -13.46477         0.00446
   C       -6.54436       -13.50739        -1.21137
   S       -5.99441       -11.97110        -1.75592
   S       -6.39433       -15.08373        -1.91745
   C       -7.26161       -15.71372        -0.55519
   C       -7.64971       -14.76839         0.38854
   C       -8.36933       -15.36960         1.45679
   C       -8.90004       -14.67632         2.55549
   N       -9.34700       -14.13203         3.46084
   C       -8.50096       -16.74416         1.30174
   S       -7.73749       -17.32045        -0.16617
   C       -9.16177       -17.67436         2.15037
   C       -9.18117       -19.05175         1.99017
   C       -9.93390       -19.68022         2.97891
   C      -10.49381       -18.76753         3.89074
   S      -10.08711       -17.14764         3.54511
   C      -11.24615       -19.48999         4.84609
   C      -11.16709       -20.86486         4.54197
   C      -10.33311       -21.02783         3.36054
   C       -9.99589       -22.19245         2.73835
   C      -10.45003       -23.44879         3.19543
   N      -10.82967       -24.46537         3.56380
   C       -9.17305       -22.21223         1.59135
   N       -8.50693       -22.22402         0.65873
   C      -11.90629       -21.64939         5.41899
   C      -12.52354       -20.89524         6.40932
   S      -12.20585       -19.17117         6.20907
   C      -13.40747       -21.38829         7.39295
   C      -13.89325       -20.76826         8.50498
   C      -15.17560       -21.23172         9.10056
   O      -15.75122       -22.26894         8.88066
   C      -15.62072       -20.10917         9.96210
   C      -16.81818       -19.95724        10.62837
   C      -17.02681       -18.77751        11.34565
   C      -16.03350       -17.77960        11.37572
   C      -14.81826       -17.94906        10.70934
   C      -14.61589       -19.12202        10.00409
   C      -13.46467       -19.59465         9.23525
   C      -12.17212       -19.18369         9.42110
   C      -11.06653       -19.86248         8.86573
   N      -10.15111       -20.41718         8.45259
   C      -11.80340       -18.10941        10.25775
   N      -11.46577       -17.23614        10.92012
   C      -16.27553       -16.57863        12.08854
   N      -16.46726       -15.60332        12.65619
   C      -18.24658       -18.57793        12.03684
   N      -19.23993       -18.43292        12.58741
   H       -6.09281         2.65236         3.73503
   H       -6.24863         1.43773        -1.10307
   H       -6.30522        -2.79190         3.52074
   H       -5.40867        -3.29335        -0.28933
   H       -5.73847        -9.22133        -2.07530
   H       -8.66557       -19.55292         1.19031
   H      -11.99009       -22.72037         5.37396
   H      -13.83760       -22.36327         7.18308
   H      -17.57446       -20.72660        10.59356
   H      -14.07863       -17.16451        10.74565
*
