# ORCA input file
# SCF done       -210.147504096293          0.000656243489
! CAM-B3LYP def2-SVP def2/J RIJCOSX Grid4 TightSCF
%maxcore 5000
%tddft
    Mode sTDDFT
    Ethresh 5.0
    maxcore 5000
end

%pal
  nprocs 6
  end
* xyz 0 1
   C        3.32545         7.15379         4.05789
   C        3.11908         7.40956         5.38644
   C        3.66330         6.56224         6.36278
   C        4.40489         5.47101         5.99820
   C        4.63573         5.17663         4.63965
   C        5.39496         4.04499         4.25791
   C        5.59856         3.79054         2.92986
   C        5.06371         4.67067         1.94342
   C        4.31911         5.76429         2.28275
   C        4.08479         6.03984         3.64853
   C        5.47091         4.20519         0.61198
   O        5.17259         4.65143        -0.47205
   C        6.40769         3.05843         0.86253
   C        6.31076         2.70870         2.25509
   C        6.65082         1.50542         2.82112
   C        7.09381         0.40468         2.06450
   N        7.44381        -0.50829         1.46338
   C        6.45720         1.19152         4.18285
   N        6.31462         0.88407         5.27868
   C        7.18587         2.65337        -0.18163
   C        8.38827         1.91519        -0.22589
   C        9.34484         1.62618         0.75230
   C       10.44227         0.98748         0.12762
   C       10.14534         0.84526        -1.28410
   O       10.75081         0.34215        -2.20645
   N        8.88963         1.45815        -1.42411
   C        8.20959         1.49051        -2.69006
   C       11.36496         0.63881         1.10908
   N       10.86895         1.03987         2.31345
   C        9.64108         1.71195         2.16397
   O        9.04534         2.22832         3.09040
   C       11.51837         0.96362         3.59341
   C       12.63379         0.01248         0.85307
   C       13.17308        -1.07801         1.55783
   C       14.38334        -1.71737         1.10585
   N       14.98084        -2.61834         1.89085
   C       14.32846        -3.11562         2.90863
   C       13.00234        -2.65447         3.21072
   N       12.50588        -1.61268         2.59560
   C       12.25973        -3.26840         4.25020
   N       11.69600        -3.77697         5.10730
   C       14.96144        -4.08648         3.72210
   N       15.44779        -4.89475         4.37162
   C       14.98645        -1.42138        -0.14194
   C       14.44964        -0.33127        -0.84636
   C       13.31982         0.40121        -0.31575
   N       12.98025         1.42303        -1.10123
   S       13.88516         1.39886        -2.41297
   N       14.81518         0.14398        -2.04063
   C       15.99137        -2.33409        -0.59818
   C       15.98838        -3.71098        -0.35386
   C       17.17304        -4.25202        -0.90620
   C       17.92565        -3.17945        -1.51582
   O       18.98922        -3.14949        -2.09102
   N       17.12553        -2.03131        -1.29039
   C       17.60745        -0.72275        -1.63822
   C       17.14671        -5.63434        -0.74928
   N       15.99799        -5.95711        -0.09379
   C       15.20814        -4.81528         0.17354
   O       14.13937        -4.87468         0.74349
   C       15.60389        -7.25138         0.38907
   C       18.19342        -6.51869        -1.16854
   C       18.06773        -7.66787        -1.87289
   C       19.14872        -8.55568        -2.27954
   C       20.38516        -8.62451        -1.69894
   C       21.39507        -9.52471        -2.10133
   N       22.24784       -10.23486        -2.39282
   C       20.78851        -7.84527        -0.59241
   N       21.16330        -7.26745         0.32530
   C       18.64089        -9.41179        -3.34056
   C       17.25362        -9.13899        -3.52463
   C       16.50821        -9.79785        -4.46078
   C       17.12707       -10.77525        -5.27098
   C       16.40902       -11.48490        -6.25361
   C       17.03121       -12.42137        -7.03404
   C       18.39782       -12.69052        -6.86488
   C       19.12397       -12.02005        -5.91846
   C       18.51556       -11.04866        -5.09758
   C       19.26189       -10.35236        -4.12016
   C       16.82950        -8.07644        -2.60245
   O       15.73075        -7.57767        -2.50687
   H        2.90975         7.80293         3.30107
   H        2.53637         8.26579         5.69166
   H        3.49151         6.77809         7.40666
   H        4.82349         4.81464         6.74675
   H        5.81061         3.41372         5.02710
   H        3.91699         6.41404         1.51951
   H        6.86251         3.06036        -1.13666
   H        8.83603         0.94646        -3.39711
   H        8.08098         2.51560        -3.04437
   H        7.23561         1.00384        -2.62128
   H       12.55200         1.30482         3.52021
   H       11.49991        -0.05897         3.97224
   H       10.96329         1.60950         4.27397
   H       18.59227        -0.85924        -2.08483
   H       17.69296        -0.09759        -0.74735
   H       16.93737        -0.24088        -2.35029
   H       16.48225        -7.83027         0.67195
   H       15.04031        -7.78891        -0.37643
   H       14.96178        -7.09953         1.25691
   H       19.18602        -6.13176        -0.96547
   H       15.45891        -9.57344        -4.58259
   H       15.35744       -11.27314        -6.37978
   H       16.47412       -12.95924        -7.78630
   H       18.87284       -13.43232        -7.48903
   H       20.17587       -12.22456        -5.78378
   H       20.31253       -10.57362        -4.01793
*
