# ORCA input file
# SCF done       -137.700386373795          0.000714354942
! CAM-B3LYP def2-SVP def2/J RIJCOSX Grid4 TightSCF
%maxcore 5000
%tddft
    Mode sTDDFT
    Ethresh 5.0
    maxcore 5000
end

%pal
  nprocs 6
  end
* xyz 0 1
   C        1.63499        -1.41501         5.40554
   C        2.67403        -2.25384         5.14436
   C        2.33408        -3.27294         4.23947
   C        1.02880        -3.20125         3.81546
   S        0.21166        -1.84962         4.55114
   C        0.34960        -4.05681         2.90401
   C       -0.95884        -3.96576         2.47543
   C       -1.28434        -4.97550         1.56680
   C       -0.21038        -5.84377         1.30445
   S        1.19565        -5.41569         2.17651
   C       -0.62572        -6.82193         0.36884
   C       -1.97225        -6.56847         0.03789
   C       -2.42890        -5.40403         0.78080
   C       -3.66796        -4.83399         0.74209
   C       -3.99523        -3.69627         1.50900
   N       -4.26896        -2.77062         2.12856
   C       -4.70771        -5.33909        -0.06651
   N       -5.56461        -5.73552        -0.71761
   C       -2.47933        -7.46599        -0.89145
   C       -1.53475        -8.40789        -1.27980
   S        0.00834        -8.17164        -0.46430
   C       -1.67525        -9.45912        -2.22410
   C       -2.86186        -9.71872        -2.96076
   C       -2.91279       -10.77072        -3.93427
   N       -4.04383       -10.98732        -4.62866
   C       -5.08786       -10.23866        -4.40574
   C       -5.04014        -9.21052        -3.44516
   N       -3.96056        -8.96778        -2.75459
   C       -1.81531       -11.61669        -4.22645
   C       -0.64535       -11.37874        -3.47493
   C       -0.58974       -10.31817        -2.49931
   N        0.60475       -10.25518        -1.90780
   S        1.55487       -11.40446        -2.50826
   N        0.51241       -12.03821        -3.54611
   C       -1.91457       -12.61233        -5.22887
   C       -0.92158       -13.49786        -5.62933
   C       -1.34661       -14.32132        -6.66268
   C       -2.67627       -14.06387        -7.05425
   S       -3.40210       -12.80850        -6.14029
   C       -2.99472       -14.93999        -8.11984
   C       -1.87857       -15.74611        -8.40400
   C       -0.80583       -15.38739        -7.49149
   C        0.44260       -15.93379        -7.42533
   C        1.40782       -15.50227        -6.49127
   N        2.20557       -15.16481        -5.73955
   C        0.85550       -16.97106        -8.28726
   N        1.19896       -17.81451        -8.98449
   C       -2.10075       -16.63272        -9.45972
   C       -3.37311       -16.50949        -9.98013
   S       -4.31549       -15.27906        -9.15010
   C       -3.94564       -17.23576       -11.06107
   C       -5.21312       -17.13013       -11.58154
   C       -5.43836       -18.00199       -12.65948
   C       -4.35039       -18.76335       -12.95553
   S       -3.02032       -18.43454       -11.92241
   H        1.61675        -0.56077         6.05250
   H        3.64937        -2.14642         5.58358
   H        3.01484        -4.03534         3.90442
   H       -1.62779        -3.19555         2.81515
   H       -3.47528        -7.46701        -1.29287
   H       -5.97537       -10.44766        -4.98570
   H       -5.89426        -8.58065        -3.23931
   H        0.04992       -13.50829        -5.17054
   H       -1.38319       -17.33577        -9.84316
   H       -5.94718       -16.44639       -11.19394
   H       -6.36897       -18.06225       -13.19420
   H       -4.24604       -19.50346       -13.72361
*
