# ORCA input file
# SCF done       -193.365492522573          0.000557146682
! CAM-B3LYP def2-SVP def2/J RIJCOSX Grid4 TightSCF
%maxcore 5000
%tddft
    Mode sTDDFT
    Ethresh 5.0
    maxcore 5000
end

%pal
  nprocs 6
  end
* xyz 0 1
   C        0.43673         3.60277         3.86659
   C        1.28714         4.49278         3.26224
   C        2.68416         4.50657         3.45853
   N        3.82329         4.57437         3.58255
   C        0.90739         5.48897         2.33813
   N        0.68258         6.31015         1.56706
   C        0.84195         2.50569         4.73594
   C       -0.29815         1.72122         5.03389
   C       -0.24399         0.60246         5.82911
   C        0.99835         0.24088         6.35976
   C        2.13287         1.03413         6.06238
   C        2.07696         2.16404         5.25585
   S        3.56388         0.41373         6.82748
   C        2.63283        -0.88533         7.52504
   C        1.31759        -0.85806         7.20295
  Br        3.48450        -2.15234         8.61350
   C       -1.48571         2.30130         4.37888
   O       -2.61813         1.87626         4.45818
   C       -1.00379         3.52512         3.69257
   C       -1.76712         4.52115         3.14713
   C       -3.14274         4.53980         2.84450
   C       -4.07817         3.52246         2.70268
   C       -5.33348         4.00823         2.36558
   C       -5.37260         5.41659         2.24904
   S       -3.85391         6.12885         2.51773
   C       -6.70141         5.80540         1.96038
   C       -7.50384         4.65282         1.88672
   C       -6.66630         3.48401         2.11845
   C       -7.05472         2.17812         2.09069
   C       -6.15544         1.10538         2.27919
   N       -5.44183         0.21730         2.40350
   C       -8.39430         1.80527         1.84547
   N       -9.48291         1.50410         1.65006
   C       -8.84300         4.93936         1.63161
   C       -9.06848         6.30030         1.51503
   S       -7.59828         7.23997         1.71023
   C      -10.31048         6.94947         1.30162
   C      -10.56149         8.30509         1.21211
   C      -11.90976         8.60612         1.04651
   C      -12.71900         7.48722         1.00295
   S      -11.78167         6.02981         1.16220
   C      -14.13070         7.43116         0.88346
   C      -14.92392         6.29925         0.81228
   C      -16.27897         6.61656         0.74450
   C      -16.52029         8.00197         0.76486
   S      -15.07636         8.91095         0.85571
   C      -17.91860         8.22220         0.71881
   C      -18.56243         6.96826         0.67132
   C      -17.55527         5.92206         0.66681
   C      -17.77256         4.57928         0.57407
   C      -16.71558         3.64458         0.56215
   N      -15.85343         2.88937         0.55872
   C      -19.07902         4.05325         0.48328
   N      -20.14774         3.64323         0.41709
   C      -19.94522         7.07123         0.61842
   C      -20.37517         8.39098         0.62011
   S      -19.02301         9.51568         0.71689
   C      -21.69276         8.89520         0.61820
   C      -22.85182         8.26007         0.28731
   C      -23.15007         7.02757        -0.41125
   C      -22.41064         6.44710        -1.40954
   C      -22.83750         5.32592        -2.15211
   N      -23.14273         4.42151        -2.78856
   C      -21.18698         6.96033        -1.88033
   N      -20.19918         7.35873        -2.30930
   C      -24.52006         6.65897        -0.06838
   C      -25.12875         7.74489         0.61063
   C      -24.13938         8.82515         0.78317
   O      -24.30627         9.92073         1.26669
   C      -26.43659         7.71092         1.03018
   C      -27.17187         6.54745         0.77957
   C      -26.54800         5.46191         0.11782
   C      -25.22792         5.49874        -0.31495
   S      -27.63397         4.12065        -0.07384
   C      -28.89639         5.02391         0.72043
   C      -28.52497         6.26599         1.11257
  Br      -30.58373         4.24215         0.95879
   H       -1.13207         0.02514         6.03294
   H        2.96847         2.73697         5.06341
   H        0.60045        -1.58155         7.54530
   H       -1.26414         5.45755         2.93433
   H       -3.83767         2.48626         2.85046
   H       -9.62988         4.21242         1.53981
   H       -9.78184         9.04364         1.27251
   H      -12.29854         9.60547         0.96263
   H      -14.51685         5.30395         0.81501
   H      -20.62057         6.23547         0.62864
   H      -21.82103         9.90339         1.00083
   H      -26.87915         8.55404         1.53688
   H      -24.78962         4.64557        -0.80579
   H      -29.17671         6.95623         1.61626
*
