# ORCA input file
# SCF done       -226.131072334810          0.000902618208
! CAM-B3LYP def2-SVP def2/J RIJCOSX Grid4 TightSCF
%maxcore 5000
%tddft
    Mode sTDDFT
    Ethresh 5.0
    maxcore 5000
end

%pal
  nprocs 6
  end
* xyz 0 1
   C       -4.87051         0.14404        -4.93549
   C       -3.98003         0.25898        -5.96620
   F       -4.10691         1.24936        -6.85812
   C       -2.92037        -0.65999        -6.10485
   F       -2.06310        -0.52365        -7.12486
   C       -2.76613        -1.68199        -5.21037
   C       -3.66827        -1.82769        -4.13887
   C       -4.73978        -0.89896        -3.99681
   C       -5.65961        -1.02632        -2.93013
   C       -5.51537        -2.05353        -2.03523
   C       -4.44446        -2.97815        -2.18923
   C       -3.53741        -2.87873        -3.20436
   C       -4.52395        -3.98900        -1.12234
   O       -3.75058        -4.91350        -0.94447
   C       -5.71595        -3.65892        -0.33137
   C       -6.29955        -2.44078        -0.86372
   C       -7.37319        -1.74738        -0.36939
   C       -8.12272        -2.09387         0.77491
   N       -8.77788        -2.30234         1.69485
   C       -7.87506        -0.55869        -0.94170
   N       -8.33194         0.40776        -1.35946
   C       -6.21692        -4.41420         0.69765
   C       -5.74433        -5.61813         1.24500
   C       -6.43684        -6.29325         2.25136
   C       -5.83574        -7.47430         2.64282
  Cl       -6.49423        -8.50321         3.84859
   C       -4.64128        -7.74388         1.95886
   S       -4.29778        -6.48546         0.80735
   C       -3.80724        -8.86915         2.11283
   C       -2.59577        -9.13008         1.46561
  Cl       -1.88294        -8.05702         0.33816
   C       -2.01782       -10.34322         1.81323
   C       -2.77213       -11.05663         2.73167
   S       -4.21060       -10.19348         3.17872
   C       -2.49164       -12.33928         3.26394
   C       -3.39701       -12.96020         4.15794
   C       -3.20974       -14.28784         4.68941
   N       -4.13465       -14.79172         5.51927
   C       -5.18602       -14.07747         5.83884
   C       -5.37050       -12.75799         5.31369
   N       -4.47852       -12.25301         4.49867
   C       -6.50599       -11.98502         5.66038
   N       -7.43386       -11.38224         5.95564
   C       -6.15039       -14.63431         6.71736
   N       -6.94557       -15.06179         7.42166
   C       -2.07053       -15.05690         4.34603
   C       -1.14683       -14.41768         3.48849
   C       -1.34128       -13.09477         2.94744
   N       -0.32766       -12.73683         2.15761
   S        0.75011       -13.92233         2.10157
   N       -0.00369       -14.95825         3.06767
   C       -1.82888       -16.38591         4.78773
   C       -2.62929       -17.20671         5.56442
   C       -2.07768       -18.46521         5.76811
  Cl       -2.86268       -19.67915         6.68703
   C       -0.83134       -18.64801         5.16755
   S       -0.36191       -17.19838         4.32486
   C       -0.01799       -19.80076         5.19575
   C        1.27186       -19.96297         4.68865
  Cl        2.12394       -18.70820         3.89782
   C        1.80236       -21.23451         4.87717
   C        0.94735       -22.08919         5.55127
   S       -0.55366       -21.28428         5.91892
   C        1.18628       -23.46024         5.79853
   C        0.47437       -24.34755         6.54494
   C        0.60063       -25.80420         6.25321
   O        1.47864       -26.34374         5.62282
   C       -0.61282       -26.41437         6.83446
   C       -1.06187       -27.69912         6.72744
   C       -2.28715       -28.05118         7.33670
   C       -3.02782       -27.06036         8.04527
   C       -4.25573       -27.41671         8.63821
   C       -4.72476       -28.69628         8.53565
   C       -3.98983       -29.67606         7.83780
   C       -2.79621       -29.36177         7.25102
   F       -4.47408       -30.92198         7.75268
   F       -5.89202       -29.03269         9.09857
   C       -2.53142       -25.74080         8.15129
   C       -1.33867       -25.42500         7.55879
   C       -0.57401       -24.18142         7.52994
   C       -0.65731       -23.17813         8.45762
   C        0.31590       -22.16359         8.57811
   N        1.11579       -21.35653         8.73876
   C       -1.65897       -23.11106         9.44700
   N       -2.46821       -23.00931        10.25423
   H       -5.67552         0.85643        -4.84425
   H       -1.95034        -2.37757        -5.33022
   H       -6.45917        -0.30766        -2.85411
   H       -2.73473        -3.59462        -3.29488
   H       -7.13160        -4.06742         1.16298
   H       -7.35594        -5.92756         2.67247
   H       -1.08864       -10.70688         1.41620
   H       -3.57740       -16.89771         5.96145
   H        2.78582       -21.51940         4.55116
   H        2.00169       -23.89441         5.22721
   H       -0.49217       -28.43662         6.18292
   H       -4.82892       -26.68011         9.17918
   H       -2.24616       -30.12285         6.72007
   H       -3.11233       -25.00695         8.68720
*
