# ORCA input file
# SCF done       -232.566407042742          0.000804453058
! CAM-B3LYP def2-SVP def2/J RIJCOSX Grid4 TightSCF
%maxcore 5000
%tddft
    Mode sTDDFT
    Ethresh 5.0
    maxcore 5000
end

%pal
  nprocs 6
  end
* xyz 0 1
   C       -7.06446         3.08674         0.52918
   C       -7.88432         3.76542         1.38652
   F       -8.17297         5.05395         1.16348
   C       -8.43650         3.12133         2.51218
   F       -9.23812         3.81117         3.33418
   C       -8.16146         1.80647         2.76449
   C       -7.32270         1.07899         1.89794
   C       -6.76173         1.72982         0.76066
   C       -5.91695         1.01990        -0.12301
   C       -5.64644        -0.30043         0.12242
   C       -6.21822        -0.94479         1.25427
   C       -7.03319        -0.28452         2.12784
   C       -5.80330        -2.36175         1.28317
   O       -6.13215        -3.18787         2.10580
   C       -4.99863        -2.55931         0.05125
   C       -4.83646        -1.27417        -0.60059
   C       -3.99962        -0.99967        -1.65055
   C       -3.14576        -1.94164        -2.26264
   N       -2.41711        -2.65327        -2.79272
   C       -3.85390         0.27943        -2.22687
   N       -3.70436         1.29515        -2.74003
   C       -4.67555        -3.76390        -0.51055
   C       -4.71333        -5.04023         0.08584
   C       -4.63280        -5.42875         1.41714
   C       -4.68798        -6.80824         1.56252
   C       -4.82540        -7.49012         0.33285
   S       -4.82644        -6.43278        -0.99763
   C       -4.93878        -8.87538         0.59195
   C       -4.85609        -9.07807         1.98420
   C       -4.67749        -7.78890         2.63710
   C       -4.52416        -7.54962         3.96963
   C       -4.53860        -8.58536         4.92963
   N       -4.55501        -9.41666         5.71839
   C       -4.31871        -6.25215         4.48867
   N       -4.12929        -5.21007         4.92644
   C       -4.98667       -10.41639         2.34143
   C       -5.19154       -11.22695         1.23442
   S       -5.19486       -10.32739        -0.26870
   C       -5.42867       -12.63218         1.23888
   C       -5.78258       -13.33735         0.08865
   O       -5.83511       -12.62805        -1.08655
   C       -7.10215       -12.56439        -1.73038
   C       -6.05792       -14.72868         0.09578
   O       -6.37430       -15.37410        -1.07596
   C       -5.33983       -15.43578        -2.04944
   C       -6.08333       -15.48852         1.26485
   C       -5.71879       -14.79721         2.45143
   C       -5.37745       -13.39783         2.43501
   N       -5.07590       -13.05908         3.67252
   O       -5.21377       -14.15604         4.40505
   N       -5.59895       -15.20986         3.69743
   C       -6.46484       -16.86133         1.27846
   C       -6.46854       -17.71174         2.37460
   C       -6.96369       -18.97005         2.04881
   C       -7.34756       -19.07161         0.69677
   S       -7.06998       -17.63035        -0.17470
   C       -7.89362       -20.35802         0.48431
   C       -7.84341       -21.08160         1.69338
   C       -7.24461       -20.23499         2.71307
   C       -6.99803       -20.56066         4.01304
   C       -7.30653       -21.83526         4.53607
   N       -7.54789       -22.87277         4.95948
   C       -6.40236       -19.65878         4.92174
   N       -5.91143       -18.94123         5.66822
   C       -8.38862       -22.35534         1.58081
   C       -8.90483       -22.59717         0.31617
   S       -8.62812       -21.23741        -0.77314
   C       -9.52750       -23.79231        -0.11013
   C      -10.36969       -23.99585        -1.16047
   C      -10.54602       -25.37040        -1.70681
   O      -10.19049       -26.40465        -1.19336
   C      -11.18400       -25.18082        -3.02640
   C      -11.46177       -26.11024        -3.98680
   C      -12.06230       -25.69086        -5.19530
   C      -12.35706       -24.30968        -5.38844
   C      -12.94855       -23.89764        -6.59948
   C      -13.23805       -24.81373        -7.57131
   C      -12.94898       -26.17979        -7.37833
   C      -12.37356       -26.61049        -6.21578
   F      -13.24290       -27.05504        -8.34852
   F      -13.80075       -24.42011        -8.72092
   C      -12.06540       -23.37082        -4.37278
   C      -11.49462       -23.80233        -3.20582
   C      -11.13609       -23.08614        -1.98484
   C      -11.68073       -21.89339        -1.58492
   C      -11.55587       -21.38258        -0.27655
   N      -11.51013       -20.95659         0.78856
   C      -12.49825       -21.09058        -2.40532
   N      -13.14400       -20.38948        -3.04473
   H       -6.64874         3.59537        -0.32662
   H       -8.59205         1.32762         3.62993
   H       -5.51305         1.53681        -0.97856
   H       -7.45110        -0.79643         2.98126
   H       -4.39946        -3.76645        -1.55902
   H       -4.53010        -4.72885         2.22454
   H       -4.94927       -10.81152         3.34008
   H       -6.94093       -11.97712        -2.63177
   H       -7.83143       -12.06018        -1.09003
   H       -7.47725       -13.55462        -1.99249
   H       -4.49148       -16.01273        -1.67004
   H       -4.99775       -14.44148        -2.34183
   H       -5.77405       -15.94599        -2.90648
   H       -6.13406       -17.39405         3.34527
   H       -8.45935       -23.07289         2.37824
   H       -9.24650       -24.68685         0.43837
   H      -11.22900       -27.15189        -3.82647
   H      -13.18078       -22.85661        -6.76125
   H      -12.15890       -27.65936        -6.08367
   H      -12.29248       -22.33079        -4.54553
*
