# ORCA input file
# SCF done       -251.744294222804          0.000743217345
! CAM-B3LYP def2-SVP def2/J RIJCOSX Grid4 TightSCF
%maxcore 5000
%tddft
    Mode sTDDFT
    Ethresh 5.0
    maxcore 5000
end

%pal
  nprocs 6
  end
* xyz 0 1
   C       -6.98503         2.68992        -1.79813
   O       -6.55539         1.56275        -1.86605
   C       -6.17743         3.91740        -1.61874
   C       -7.01701         5.04190        -1.54759
   C       -6.46327         6.29954        -1.36563
   C       -5.08181         6.41007        -1.26173
   C       -4.25562         5.28574        -1.33756
   C       -4.80580         4.02358        -1.51525
  Br       -2.38030         5.46677        -1.19460
  Br       -4.32578         8.12403        -1.00809
   C       -8.40271         4.60530        -1.68445
   C       -9.49227         5.42782        -1.76960
   C       -9.42557         6.83625        -1.68898
   N       -9.42937         7.98155        -1.62247
   C      -10.82277         4.99690        -1.96815
   N      -11.92616         4.72933        -2.13678
   C       -8.40076         3.15193        -1.78021
   C       -9.48942         2.35093        -1.64057
   C       -9.53635         0.91763        -1.76196
   C       -8.80624         0.21849        -2.73166
   C       -8.84871        -1.15944        -2.81730
   C       -9.61812        -1.87556        -1.90626
   C      -10.37316        -1.16054        -0.94247
   C      -10.37207         0.21098        -0.87961
   N      -11.02194        -2.05104        -0.11445
   C      -11.91962        -1.70049         0.95167
   C      -10.67623        -3.34263        -0.41960
   O      -11.13035        -4.30929         0.15474
   C       -9.75271        -3.27960        -1.60051
   C       -9.18897        -4.37050        -2.20490
   C       -8.66539        -4.40046        -3.61672
   O       -8.69858        -3.53363        -4.46315
   N       -8.19135        -5.66573        -3.83766
   C       -7.61132        -6.10178        -5.07979
   C       -8.30259        -6.43714        -2.70147
   C       -8.95891        -5.69414        -1.68793
   C       -9.11714        -6.27675        -0.43195
   C       -8.61841        -7.54145        -0.21096
   C       -7.96151        -8.26768        -1.21863
   C       -7.81790        -7.70619        -2.49913
   C       -7.38682        -9.54699        -0.92770
   C       -6.76587       -10.45258        -1.79375
   C       -6.22042       -11.60659        -1.11563
   N       -5.59318       -12.56714        -1.80265
   C       -5.48550       -12.41623        -3.10247
   C       -4.78734       -13.49104        -3.84793
   O       -4.30913       -14.46295        -3.29943
   C       -4.71491       -13.28932        -5.30565
   C       -5.20340       -12.21265        -5.93085
   C       -5.87125       -11.09691        -5.23752
   O       -6.26544       -10.10878        -5.82229
   C       -6.01516       -11.26892        -3.77182
   N       -6.64379       -10.31897        -3.11878
   C       -6.40699       -11.57124         0.27024
   S       -7.28488       -10.14158         0.69399
   C       -5.90128       -12.46466         1.26864
   C       -6.06884       -12.16899         2.63190
   C       -5.48384       -12.93061         3.61976
   C       -4.70075       -14.02390         3.25674
   C       -4.62746       -14.37700         1.88631
   C       -5.19582       -13.62096         0.89116
   N       -3.91170       -15.54743         1.75255
   C       -3.65479       -16.21820         0.50600
   C       -3.51716       -16.02454         2.97299
   O       -2.87431       -17.04091         3.12268
   C       -3.95693       -15.00911         3.99840
   C       -3.55081       -14.99346         5.30475
   C       -3.51874       -13.75698         6.15794
   O       -3.89359       -12.63179         5.91078
   N       -2.86845       -14.09361         7.31881
   C       -2.64922       -13.17044         8.39794
   C       -2.55123       -15.43280         7.33413
   C       -2.94776       -16.02821         6.11075
   C       -2.77225       -17.39801         5.94947
   C       -2.17755       -18.12437         6.96274
   C       -1.77895       -17.52901         8.16772
   C       -1.96147       -16.14774         8.34632
   C       -1.15892       -18.33863         9.17957
   C       -1.10703       -18.14242        10.52080
   C       -0.08235       -18.86534        11.32612
   O        0.58190       -19.81150        10.98071
   C       -0.01955       -18.13160        12.61054
   C       -1.01986       -17.14204        12.63688
   C       -1.80915       -17.23532        11.41044
   C       -3.07923       -16.75234        11.25161
   C       -3.91815       -17.07781        10.16320
   N       -4.66986       -17.34628         9.33954
   C       -3.72415       -15.92081        12.19104
   N       -4.27345       -15.21406        12.90884
   C       -1.12900       -16.30061        13.73121
   C       -0.23971       -16.46487        14.78695
   C        0.74144       -17.45921        14.75984
   C        0.85664       -18.30290        13.66221
  Br        1.92975       -17.66721        16.21457
  Br       -0.37324       -15.30448        16.27330
   H       -7.06822         7.18902        -1.29672
   H       -4.18065         3.14595        -1.57211
   H      -10.42329         2.81403        -1.34289
   H       -8.22215         0.77029        -3.44904
   H       -8.29619        -1.66731        -3.58828
   H      -10.95022         0.74052        -0.13804
   H      -11.40584        -1.10451         1.70892
   H      -12.27213        -2.62911         1.39904
   H      -12.77112        -1.13787         0.56497
   H       -7.72743        -5.29225        -5.79898
   H       -8.12006        -6.99447        -5.44494
   H       -6.55075        -6.32686        -4.95223
   H       -9.62982        -5.75417         0.35639
   H       -8.73314        -7.99134         0.76437
   H       -7.31815        -8.25710        -3.27788
   H       -4.22444       -14.08258        -5.85371
   H       -5.12151       -12.10107        -7.00372
   H       -6.65426       -11.30497         2.90977
   H       -5.61515       -12.66232         4.65255
   H       -5.09848       -13.87968        -0.14948
   H       -4.58991       -16.53198         0.03900
   H       -3.04382       -17.09323         0.72257
   H       -3.12238       -15.55834        -0.17980
   H       -3.02371       -12.19924         8.07632
   H       -1.58434       -13.09080         8.62470
   H       -3.18935       -13.48764         9.29320
   H       -3.07092       -17.88677         5.03882
   H       -2.04017       -19.18778         6.84102
   H       -1.61451       -15.65725         9.24243
   H       -0.59758       -19.19753         8.82414
   H       -1.87185       -15.52082        13.78296
   H        1.61303       -19.07154        13.62998
*
