# ORCA input file
# SCF done       -204.702786768021          0.000821061327
! CAM-B3LYP def2-SVP def2/J RIJCOSX Grid4 TightSCF
%maxcore 5000
%tddft
    Mode sTDDFT
    Ethresh 5.0
    maxcore 5000
end

%pal
  nprocs 6
  end
* xyz 0 1
   C        1.76430         1.27448         1.28256
   C        2.44367         2.30255         1.88410
   C        3.10162         2.18604         3.12667
   N        3.65852         2.14283         4.12911
   C        2.64604         3.56162         1.28835
   N        2.84542         4.59361         0.82544
   C        1.73288        -0.10199         1.76781
   C        1.39140        -0.95958         0.68123
   C        1.31391        -2.31404         0.83302
   C        1.56637        -2.87996         2.10305
   C        1.89023        -2.02625         3.19733
   C        1.97098        -0.62692         3.00908
   C        2.12939        -2.60345         4.46082
   C        2.05537        -3.95854         4.63678
   C        1.73715        -4.79820         3.55896
   C        1.49856        -4.27047         2.31893
   C        1.13607        -0.14514        -0.51769
   O        0.87952        -0.51725        -1.63964
   C        1.19395         1.27223        -0.04789
   C        0.65480         2.23471        -0.84551
   C        0.22917         3.53920        -0.51304
   C       -0.04775         4.08280         0.73346
   C       -0.49332         5.39497         0.64754
   C       -0.57074         5.86388        -0.67966
   S       -0.10437         4.68180        -1.81043
   C       -1.02918         7.20466        -0.65192
   C       -1.22880         7.58583         0.68771
   C       -0.89323         6.46303         1.54810
   C       -0.92917         6.41440         2.91044
   C       -1.33701         7.51355         3.69576
   N       -1.67743         8.40024         4.33785
   C       -0.56782         5.24481         3.61268
   N       -0.28074         4.28400         4.16899
   C       -1.69286         8.89285         0.81829
   C       -1.86258         9.50970        -0.40762
   S       -1.42299         8.45334        -1.74394
   C       -2.35954        10.82692        -0.65893
   C       -2.61392        11.29195        -1.94066
   C       -3.14151        12.55488        -2.17756
   F       -3.36044        12.87809        -3.46972
   C       -3.45983        13.48473        -1.19163
   C       -3.17883        13.04427         0.13342
   C       -2.64375        11.73414         0.39904
   N       -2.46887        11.53026         1.70323
   S       -2.92443        12.83641         2.51399
   N       -3.36992        13.72992         1.25894
   C       -4.04228        14.76493        -1.45668
   C       -4.31834        15.75192        -0.52384
   C       -4.92517        16.86262        -1.10081
   C       -5.11820        16.72061        -2.48816
   S       -4.53725        15.23073        -3.07714
   C       -5.76747        17.88146        -2.97201
   C       -5.97616        18.76681        -1.88981
   C       -5.45987        18.14829        -0.67890
   C       -5.49210        18.64421         0.59039
   C       -6.07891        19.88601         0.91917
   N       -6.56444        20.87840         1.22394
   C       -4.95639        17.93141         1.68524
   N       -4.52384        17.36116         2.58098
   C       -6.61257        19.94323        -2.26117
   C       -6.90866        19.97243        -3.61854
   S       -6.37771        18.49310        -4.43395
   C       -7.60737        20.90093        -4.41576
   C       -7.99451        22.18515        -4.14866
   C       -8.83439        22.97745        -5.03093
   C       -9.62224        22.50535        -6.04962
   C      -10.44567        23.32270        -6.85191
   N      -11.13183        23.93072        -7.54291
   C       -9.76728        21.14979        -6.41157
   N       -9.95689        20.06814        -6.74909
   C       -8.78349        24.36076        -4.57628
   C       -8.00817        24.41351        -3.38385
   C       -7.51536        23.06584        -3.05204
   O       -6.81685        22.77326        -2.10491
   C       -7.79568        25.58193        -2.71095
   C       -8.35763        26.77687        -3.21368
   C       -9.12445        26.73516        -4.41396
   C       -9.32911        25.50871        -5.08699
   C       -9.67352        27.93464        -4.91095
   C       -9.47848        29.11892        -4.25371
   C       -8.72561        29.15842        -3.07065
   C       -8.17725        28.01236        -2.56159
   H        1.06081        -2.94680        -0.00458
   H        2.20463        -0.00181         3.85675
   H        2.37675        -1.95327         5.28695
   H        2.24200        -4.39122         5.60821
   H        1.68143        -5.86501         3.71593
   H        1.25261        -4.91189         1.48525
   H        0.46050         1.91741        -1.86606
   H        0.02890         3.52320         1.64758
   H       -1.90977         9.39371         1.74370
   H       -2.41730        10.66423        -2.79667
   H       -4.08187        15.63409         0.51710
   H       -6.85467        20.75345        -1.59809
   H       -7.86242        20.51529        -5.39654
   H       -7.20774        25.59291        -1.80522
   H       -9.90939        25.51115        -5.99598
   H      -10.25418        27.89863        -5.82105
   H       -9.90415        30.03213        -4.64186
   H       -8.58208        30.10149        -2.56481
   H       -7.59655        28.03656        -1.65111
*
