# ORCA input file
# SCF done       -199.203588312069          0.000847385145
! CAM-B3LYP def2-SVP def2/J RIJCOSX Grid4 TightSCF
%maxcore 5000
%tddft
    Mode sTDDFT
    Ethresh 5.0
    maxcore 5000
end

%pal
  nprocs 6
  end
* xyz 0 1
   C       -6.17471         4.05234         1.71031
   C       -5.84621         4.51246         2.97688
   C       -5.20100         3.69335         3.89244
   C       -4.85351         2.39167         3.56330
   C       -5.17190         1.92388         2.29954
   C       -5.84299         2.75016         1.37048
   C       -6.08243         1.98927         0.15099
   C       -6.59800         2.49002        -1.01523
   C       -6.96316         3.84053        -1.20188
   N       -7.28649         4.91914        -1.42486
   C       -6.80756         1.76213        -2.20530
   N       -7.00160         1.23943        -3.20950
   C       -5.67730         0.61463         0.42620
   C       -4.91798         0.63668         1.67043
   C       -3.93600        -0.23988         2.04838
   C       -3.52331        -1.35105         1.28617
   N       -3.12770        -2.24962         0.69113
   C       -3.14240        -0.08177         3.20471
   N       -2.46324        -0.00697         4.12635
   C       -6.06437        -0.45689        -0.33434
   C       -6.09928        -1.81833         0.02164
   C       -6.08457        -2.42010         1.27505
   C       -6.19393        -3.79925         1.19737
   C       -6.30487        -4.27082        -0.12943
   S       -6.28715        -3.01023        -1.26673
   C       -6.40449        -5.68274        -0.09162
   C       -6.33828        -6.10559         1.24519
   C       -6.20655        -4.93749         2.10012
   C       -6.11011        -4.90792         3.46089
   C       -6.15276        -6.08591         4.23430
   N       -6.20681        -7.05104         4.85149
   C       -5.98161        -3.69144         4.16327
   N       -5.88606        -2.69242         4.71814
   C       -6.41565        -7.49304         1.38301
   C       -6.54766        -8.13498         0.16669
   S       -6.56958        -6.99634        -1.17091
   C       -6.72322        -9.53721        -0.06308
   C       -7.20938       -10.46348         0.84841
   C       -7.63961       -10.32804         2.26289
   N       -7.29336       -11.65837         0.20493
   C       -6.89722       -11.55274        -1.09216
   C       -6.84824       -12.74094        -1.98096
   C       -6.52811       -10.23616        -1.30895
   C       -5.98047        -9.66398        -2.50258
   C       -6.27483       -10.04983        -3.76189
   C       -5.70532        -9.45901        -4.92533
   C       -4.68441        -8.52577        -5.02019
   C       -4.41719        -8.17224        -6.33949
   C       -5.24282        -8.83520        -7.26591
   S       -6.33754        -9.90275        -6.50023
   C       -4.89371        -8.40906        -8.56515
   C       -3.83643        -7.47645        -8.46939
   C       -3.50573        -7.29841        -7.06639
   C       -2.55278        -6.48360        -6.53098
   C       -1.71148        -5.67712        -7.32743
   N       -1.02489        -5.01867        -7.96650
   C       -2.35504        -6.39291        -5.13664
   N       -2.20875        -6.32114        -4.00164
   C       -3.43728        -6.98899        -9.70539
   C       -4.15079        -7.55250       -10.75796
   S       -5.37987        -8.68121       -10.17148
   C       -4.02044        -7.17074       -12.10732
   C       -4.53912        -7.76016       -13.22901
   C       -4.78420        -7.06150       -14.48547
   C       -4.23496        -5.87896       -14.90254
   C       -3.27032        -5.13233       -14.19319
   N       -2.48302        -4.47745       -13.67392
   C       -4.53110        -5.26252       -16.13695
   N       -4.72592        -4.70911       -17.12336
   C       -5.74753        -7.86610       -15.22821
   C       -5.95017        -9.08577       -14.54351
   C       -6.83882       -10.03117       -15.02641
   C       -7.52676        -9.75269       -16.19799
   C       -7.32384        -8.55985       -16.87732
   C       -6.43442        -7.60660       -16.40346
   C       -5.07733        -9.10488       -13.38084
   C       -4.61500       -10.22953       -12.74976
   C       -5.11025       -11.52633       -12.99182
   N       -5.48990       -12.60003       -13.13504
   C       -3.52559       -10.22183       -11.85370
   N       -2.61699       -10.25539       -11.15302
   H       -6.68354         4.70088         1.01653
   H       -6.10403         5.52335         3.25342
   H       -4.96690         4.07102         4.87589
   H       -4.36246         1.75984         4.28538
   H       -6.46252        -0.24363        -1.31754
   H       -6.04318        -1.86400         2.19398
   H       -6.34500        -8.01061         2.31946
   H       -6.78136       -10.27884         2.93383
   H       -8.24595       -11.18377         2.55288
   H       -8.22710        -9.42244         2.40107
   H       -7.60561       -12.51400         0.63701
   H       -6.68518       -13.64435        -1.39577
   H       -6.04017       -12.63790        -2.70120
   H       -7.78301       -12.85909        -2.53108
   H       -5.28453        -8.84961        -2.35701
   H       -7.01867       -10.81337        -3.93475
   H       -4.16188        -8.13526        -4.16736
   H       -2.65216        -6.27176        -9.86545
   H       -3.50844        -6.22538       -12.23640
   H       -7.00712       -10.95765       -14.50131
   H       -8.22996       -10.47476       -16.58388
   H       -7.86821        -8.36542       -17.78873
   H       -6.29369        -6.68480       -16.94332
*
