# ORCA input file
# SCF done       -190.987090027349          0.000986610549
! CAM-B3LYP def2-SVP def2/J RIJCOSX Grid4 TightSCF
%maxcore 5000
%tddft
    Mode sTDDFT
    Ethresh 5.0
    maxcore 5000
end

%pal
  nprocs 6
  end
* xyz 0 1
   C       -3.71406        -3.11587        -0.51634
   C       -4.09777        -4.20815        -1.25433
   C       -3.72894        -5.53468        -0.95140
   N       -3.46096        -6.63542        -0.76260
   C       -4.92464        -4.18379        -2.39639
   N       -5.59808        -4.26637        -3.32376
   C       -2.89301        -3.16271         0.69191
   C       -2.77511        -1.85000         1.21159
   C       -2.05863        -1.56270         2.34704
   C       -1.42215        -2.62281         3.00226
   C       -1.54356        -3.92988         2.47600
   C       -2.27212        -4.22038         1.32818
   S       -0.67392        -5.08882         3.43538
   C       -0.16680        -3.81836         4.51656
   C       -0.62320        -2.58933         4.17818
  Br        0.92302        -4.23322         5.98576
   C       -3.51565        -0.91968         0.33753
   O       -3.63035         0.28387         0.49908
   C       -4.06097        -1.73182        -0.74995
   C       -4.74160        -1.23686        -1.83729
   C       -5.13144         0.07141        -2.12404
   C       -5.81577         0.37745        -3.31473
   O       -6.12729        -0.54664        -4.25333
   C       -7.09425        -0.06847        -5.17184
   C       -6.77966         1.36239        -5.63317
   C       -7.79409         1.87826        -6.63944
   O       -6.79821         2.24482        -4.51406
   C       -6.16326         1.71893        -3.43435
   C       -5.77034         2.47531        -2.33388
   S       -4.93664         1.51747        -1.14849
   C       -5.99759         3.85505        -2.18262
   C       -5.66106         4.63069        -1.08093
   O       -5.08602         4.14556         0.04491
   C       -5.23540         5.04179         1.13419
   C       -4.88895         6.48303         0.73451
   C       -5.02589         7.45592         1.89346
   O       -5.76819         6.92787        -0.30024
   C       -6.01594         5.97769        -1.22955
   C       -6.65153         6.24825        -2.43465
   S       -6.78609         4.81396        -3.40966
   C       -7.17294         7.50413        -2.79407
   C       -7.93733         7.83616        -3.90089
   O       -8.28779         6.94640        -4.86921
   C       -9.40610         7.41065        -5.60376
   C       -9.21879         8.87159        -6.03974
   C       -8.00378         9.02947        -6.95088
   O       -9.10170         9.71237        -4.89304
   C       -8.34992         9.17782        -3.91010
   C       -7.94904         9.89150        -2.77941
   S       -6.95663         8.87517        -1.75482
   C       -8.21724        11.24647        -2.52823
   C       -8.04713        11.93632        -1.35907
   C       -7.85413        11.46743        -0.00760
   C       -8.38726        10.32307         0.53427
   C       -8.14933         9.88311         1.84741
   N       -7.93478         9.45102         2.89051
   C       -9.29133         9.49556        -0.16325
   N      -10.08720         8.84153        -0.67079
   C       -7.25915        12.56081         0.75246
   C       -7.31136        13.73648        -0.03839
   C       -7.87194        13.40652        -1.36958
   O       -8.08846        14.16766        -2.28619
   C       -6.88292        14.95443         0.42884
   C       -6.36992        15.01220         1.73000
   C       -6.31039        13.82967         2.50420
   C       -6.75317        12.59801         2.03682
   S       -5.63608        14.12899         4.07793
   C       -5.45179        15.81724         3.68194
   C       -5.86976        16.14136         2.43581
  Br       -4.72348        16.99061         4.95163
   H       -1.98880        -0.55215         2.71777
   H       -2.33184        -5.23346         0.96757
   H       -0.40571        -1.69480         4.73295
   H       -5.02893        -1.93660        -2.61353
   H       -8.08537        -0.08198        -4.70006
   H       -7.07940        -0.76230        -6.01240
   H       -5.76681         1.37113        -6.06553
   H       -8.79484         1.82188        -6.21983
   H       -7.75170         1.29055        -7.55127
   H       -7.57392         2.91708        -6.86706
   H       -4.56165         4.68241         1.91157
   H       -6.27059         5.01129         1.49877
   H       -3.86201         6.49426         0.33746
   H       -6.04431         7.45121         2.27313
   H       -4.79682         8.46042         1.54914
   H       -4.34257         7.18651         2.69266
   H      -10.31071         7.33121        -4.98651
   H       -9.49369         6.75560        -6.47035
   H      -10.12308         9.22164        -6.54767
   H       -7.11849         8.60487        -6.48182
   H       -7.82654        10.08394        -7.14576
   H       -8.18123         8.51929        -7.89320
   H       -8.52551        11.82919        -3.39035
   H       -6.94352        15.83802        -0.18691
   H       -6.69051        11.72036         2.65922
   H       -5.82881        17.13526         2.02891
*
