# ORCA input file
# SCF done       -216.427411031897          0.000734117640
! CAM-B3LYP def2-SVP def2/J RIJCOSX Grid4 TightSCF
%maxcore 5000
%tddft
    Mode sTDDFT
    Ethresh 5.0
    maxcore 5000
end

%pal
  nprocs 6
  end
* xyz 0 1
   C       -2.82847        -3.23799        -4.22136
   C       -4.05285        -3.76654        -3.90713
   C       -4.98650        -4.20898        -4.86632
   N       -5.76737        -4.59986        -5.61057
   C       -4.54777        -3.82237        -2.58747
   N       -4.99048        -3.83597        -1.52856
   C       -2.39157        -2.85965        -5.56329
   C       -1.37910        -1.88868        -5.45119
   C       -0.80621        -1.31085        -6.56569
   C       -1.24440        -1.72005        -7.81949
   C       -2.24144        -2.69575        -7.93763
   C       -2.82529        -3.26810        -6.81236
  Cl       -2.75887        -3.20200        -9.49374
  Cl       -0.55489        -1.02497        -9.22965
   C       -1.07344        -1.65398        -4.02213
   O       -0.29966        -0.85761        -3.54689
   C       -1.88181        -2.66570        -3.28871
   C       -1.57596        -2.95241        -1.99210
   C       -1.85720        -4.10480        -1.22837
   C       -1.71285        -4.21131         0.14897
   C       -1.98480        -5.49163         0.61258
   C       -2.30609        -6.39214        -0.42651
   S       -2.29476        -5.65241        -1.95699
   C       -2.53561        -7.66982         0.13415
   C       -2.37085        -7.58031         1.52990
   C       -2.01860        -6.21063         1.87450
   C       -1.76049        -5.71533         3.11837
   C       -1.81711        -6.52457         4.27309
   N       -1.85740        -7.18269         5.21098
   C       -1.40309        -4.36696         3.33284
   N       -1.10210        -3.27597         3.51504
   C       -2.56880        -8.79651         2.17626
   C       -2.87553        -9.81101         1.28239
   S       -2.93537        -9.25073        -0.37760
   C       -3.12678       -11.17208         1.58126
   C       -3.36293       -12.19642         0.68034
   C       -3.58355       -13.40846         1.32552
   C       -3.51396       -13.30994         2.72947
   S       -3.17543       -11.72318         3.24793
   C       -3.82525       -14.57496         3.28938
   C       -4.09073       -15.46805         2.23328
   C       -3.95798       -14.76404         0.97057
   C       -4.21832       -15.26959        -0.27033
   C       -4.71387       -16.57822        -0.44250
   N       -5.15901       -17.62759        -0.57528
   C       -4.07581       -14.53361        -1.46363
   N       -3.97905       -13.97962        -2.46311
   C       -4.48544       -16.72502         2.66836
   C       -4.51811       -16.81955         4.05473
   S       -4.02861       -15.30965         4.81560
   C       -5.03372       -17.91573         4.80219
   C       -5.72841       -18.92113         4.15617
   C       -6.49935       -19.87851         4.78952
   C       -6.35518       -20.15405         6.21396
   C       -5.65697       -19.34257         7.04377
   S       -4.89650       -17.88569         6.54185
   C       -7.12625       -21.33195         6.43887
   C       -7.77755       -21.71109         5.26044
   C       -8.59902       -22.84189         5.44659
   C       -8.54644       -23.29001         6.72959
   S       -7.51931       -22.35558         7.76026
   C       -7.45416       -20.76507         4.22121
   C       -8.09389       -20.58770         2.98584
   C       -8.07754       -19.36335         2.34999
   C       -8.57988       -19.02442         1.10288
   C       -8.46193       -17.77575         0.50865
   C       -8.76749       -17.68218        -0.93541
   O       -9.30674       -18.51627        -1.62655
   C       -8.25453       -16.35789        -1.36806
   C       -7.76765       -15.67386        -0.24238
   C       -7.22374       -14.41305        -0.40331
   C       -7.13210       -13.83898        -1.67389
   C       -7.61664       -14.54360        -2.78848
   C       -8.19157       -15.81385        -2.62854
   C       -7.56281       -14.04263        -4.10872
   N       -7.55672       -13.67494        -5.19678
   C       -6.46619       -12.48924        -1.70881
   O       -5.95282       -12.03910        -0.71545
   O       -6.45474       -11.79306        -2.83830
   C       -7.94313       -16.51420         0.95338
   C       -7.67765       -16.02430         2.21849
   C       -7.91528       -16.59026         3.48511
   N       -8.02416       -16.89290         4.59077
   C       -7.09877       -14.76880         2.49164
   N       -6.57406       -13.81063         2.85355
   H       -0.03867        -0.56003        -6.46411
   H       -3.58847        -4.01946        -6.93538
   H       -0.94215        -2.22005        -1.49999
   H       -1.44393        -3.37276         0.76575
   H       -2.49436        -8.95801         3.23674
   H       -3.39437       -12.04377        -0.38286
   H       -4.72394       -17.53493         2.00476
   H       -5.70040       -18.92968         3.07880
   H       -5.57614       -19.52058         8.10433
   H       -9.19092       -23.30604         4.67915
   H       -9.05963       -24.13205         7.15114
   H       -8.67680       -21.40336         2.57884
   H       -7.63098       -18.55565         2.89878
   H       -9.01923       -19.78985         0.47329
   H       -6.84716       -13.82893         0.42119
   H       -8.56869       -16.35521        -3.48301
   H       -6.82044       -12.24536        -3.61557
*
