# ORCA input file
# SCF done       -193.223626449521          0.000490518717
! CAM-B3LYP def2-SVP def2/J RIJCOSX Grid4 TightSCF
%maxcore 5000
%tddft
    Mode sTDDFT
    Ethresh 5.0
    maxcore 5000
end

%pal
  nprocs 6
  end
* xyz 0 1
   C        0.81495        -1.51414        -4.54836
   C        1.27415        -1.38436        -3.27186
   C        0.79579        -0.20329        -2.67536
   C       -0.02669         0.53747        -3.53769
   S       -0.20684        -0.21219        -5.06046
   C       -0.46755         1.70820        -2.86428
   C        0.08581         1.69852        -1.56772
   C        0.89598         0.49658        -1.41014
   C        1.59551         0.11731        -0.30122
   C        1.61134         0.89245         0.87680
   N        1.62536         1.51865         1.83753
   C        2.34854        -1.07452        -0.25868
   N        2.96404        -2.04127        -0.21933
   C       -0.28471         2.80520        -0.81666
   C       -1.11756         3.65353        -1.53816
   S       -1.44470         3.07553        -3.16701
   C       -1.70134         4.85805        -1.12152
   C       -2.54093         5.65051        -1.90832
   C       -3.02628         6.83279        -1.24669
   N       -3.83051         7.65900        -1.89876
   C       -4.15791         7.36284        -3.14832
   C       -5.05351         8.30108        -3.83513
   O       -5.50427         9.30383        -3.29011
   C       -5.37447         7.95730        -5.22109
   C       -4.91213         6.86009        -5.83745
   C       -4.03154         5.87379        -5.19639
   O       -3.63372         4.87974        -5.77201
   C       -3.66634         6.18916        -3.79508
   N       -2.86994         5.35292        -3.16453
   C       -2.54438         6.95819         0.07789
   S       -1.50113         5.58420         0.44018
   C       -2.73684         7.91780         1.07109
   S       -1.86474         7.70588         2.56956
   C       -2.53968         9.14259         3.28614
   C       -3.43471         9.76698         2.38267
   C       -3.53896         9.08936         1.13328
   C       -4.37458         9.61128         0.14340
   C       -5.08657        10.76437         0.38174
   S       -6.13892        11.44447        -0.86096
   C       -4.99424        11.43804         1.62892
   O       -5.68786        12.56028         1.87904
   C       -4.16931        10.93447         2.61472
   C       -2.19028         9.57532         4.55924
   C       -1.25904         8.95311         5.36165
   C       -0.90047         9.42929         6.62070
   C       -1.40047        10.55203         7.31623
   C       -0.77577        10.75703         8.59327
   N       -1.17823        11.73409         9.40913
   C       -2.14779        12.51342         8.97923
   C       -2.65045        13.55377         9.91383
   O       -2.29960        13.61814        11.07188
   C       -3.63714        14.48113         9.33173
   C       -4.14099        14.35272         8.09919
   C       -3.76123        13.27349         7.17328
   O       -4.25844        13.14821         6.07129
   C       -2.72068        12.35317         7.68330
   N       -2.34953        11.37381         6.87980
   C        0.22344         9.80974         8.87638
   S        0.33460         8.65736         7.58083
   C        1.04221         9.76922        10.01671
   C        1.14948        10.75641        10.99236
   C        2.06940        10.40927        11.97197
   C        2.65037         9.14254        11.76548
   S        2.09383         8.39340        10.33740
   C        3.53408         8.87231        12.84078
   C        3.51887         9.96428        13.72177
   C        2.62739        10.97929        13.19441
   C        2.41080        12.22985        13.69308
   C        3.01367        12.66820        14.89150
   N        3.50039        13.02424        15.86687
   C        1.62902        13.19884        13.02649
   N        1.04379        14.02274        12.48585
   C        4.37652         9.77658        14.82151
   C        5.00866         8.57142        14.75801
   S        4.58833         7.63324        13.36376
   H        1.01569        -2.30978        -5.23777
   H        1.91848        -2.09875        -2.79298
   H        0.01388         3.01082         0.19576
   H       -6.02373         8.65541        -5.73205
   H       -5.17569         6.64279        -6.86350
   H       -4.45112         9.11007        -0.80694
   H       -5.86089        10.54773        -1.80461
   H       -6.22174        12.81054         1.11200
   H       -4.11337        11.46235         3.55287
   H       -2.66908        10.46822         4.93525
   H       -0.75841         8.06162         5.00409
   H       -3.95357        15.28061         9.98794
   H       -4.87868        15.04596         7.71793
   H        0.56429        11.65769        10.95429
   H        4.52045        10.48412        15.61732
   H        5.71139         8.16242        15.45615
*
