# ORCA input file
# SCF done       -187.647511251029          0.000442860846
! CAM-B3LYP def2-SVP def2/J RIJCOSX Grid4 TightSCF
%maxcore 5000
%tddft
    Mode sTDDFT
    Ethresh 5.0
    maxcore 5000
end

%pal
  nprocs 6
  end
* xyz 0 1
   C        9.15494         7.65199        -1.38461
   C        9.37957         8.98455        -1.55134
   C        8.22924         9.64433        -2.02607
   C        7.15057         8.77336        -2.20408
   S        7.54458         7.16354        -1.79683
   C        6.03802         9.52146        -2.68618
   C        6.42169        10.86235        -2.81493
   C        7.80968        10.98857        -2.39035
   C        8.55305        12.12965        -2.32681
   C        8.03719        13.40227        -2.65422
   N        7.64123        14.45267        -2.88669
   C        9.89741        12.12405        -1.89807
   N       10.99052        12.12591        -1.55149
   C        5.40472        11.68249        -3.31618
   C        4.25103        10.97387        -3.56432
   S        4.42235         9.26711        -3.15581
   C        2.97966        11.37252        -4.07988
   S        1.60083        10.45263        -3.53700
   C        2.61085        12.31850        -5.01877
   C        3.54902        13.20009        -5.74077
   O        4.75867        13.17941        -5.59081
   C        2.87367        14.09105        -6.66865
   C        3.40874        15.08578        -7.45791
   N        2.40536        15.67634        -8.14858
   C        2.57366        16.72352        -9.12413
   C        2.82767        16.14355       -10.51399
   C        1.23040        15.07815        -7.84026
   C        1.47077        14.08604        -6.91475
   C        0.54308        13.16441        -6.28297
   O       -0.65419        13.14023        -6.51012
   C        1.21098        12.27118        -5.31534
   C        0.53925        11.27427        -4.64046
   C       -0.84073        10.88932        -4.76559
   C       -1.29700         9.62740        -4.70130
   C       -0.46175         8.44575        -4.60066
   C        0.71459         8.27282        -5.34892
   C        1.63583         7.19993        -5.08527
   N        2.79014         7.12558        -5.79411
   C        3.03791         8.02496        -6.68237
   C        2.11138         9.07139        -6.96350
   N        0.99882         9.17152        -6.32424
   F        2.36752         9.96743        -7.91611
   F        4.18511         7.93794        -7.35468
   C        1.38359         6.22788        -4.10482
   C        0.15009         6.32664        -3.44036
   C       -0.76748         7.41726        -3.69650
   N       -1.84935         7.34815        -2.91277
   S       -1.71918         6.06185        -1.96617
   N       -0.30094         5.52631        -2.46869
   C        2.38672         5.24912        -3.69669
   C        2.05734         3.90304        -3.47781
   O        0.81351         3.41327        -3.83138
   C        0.53576         3.44423        -5.21429
   C        3.00373         3.03641        -2.92209
   O        2.78856         1.72657        -2.64363
   C        1.48990         1.21456        -2.42893
   C        4.30860         3.49923        -2.62936
   C        4.63108         4.82240        -2.94192
   C        3.69016         5.67895        -3.45423
   C        5.28206         2.63303        -2.01581
   C        6.57088         2.96336        -1.65537
   C        7.23893         1.89945        -1.04668
   C        6.46698         0.74257        -0.93519
   S        4.89236         0.97778        -1.59600
   C        7.17394        -0.29931        -0.31491
   C        8.47078         0.06836         0.03725
   S        8.84360         1.71420        -0.39039
   C        9.19822        -0.96341         0.65967
   C        8.45059        -2.09207         0.77186
   S        6.85066        -1.93541         0.12827
   H        9.84278         6.90596        -1.04024
   H       10.32067         9.46038        -1.34504
   H        5.49595        12.73566        -3.50260
   H        4.42881        15.40243        -7.54824
   H        3.41706        17.34885        -8.82006
   H        1.66901        17.33704        -9.13433
   H        3.72948        15.53623       -10.51127
   H        2.94900        16.94671       -11.23528
   H        1.99235        15.51935       -10.82198
   H        0.30156        15.38606        -8.27784
   H       -1.53071        11.70330        -4.94158
   H       -2.36223         9.44592        -4.68765
   H       -0.46731         3.03561        -5.32658
   H        1.24840         2.82629        -5.77293
   H        0.56095         4.46101        -5.61855
   H        0.99876         0.96756        -3.37236
   H        0.87025         1.91910        -1.87282
   H        1.63530         0.30359        -1.84702
   H        5.62645         5.18817        -2.75549
   H        3.94512         6.70700        -3.64600
   H        7.02029         3.92500        -1.81575
   H       10.21230        -0.87032         1.00124
   H        8.73980        -3.03065         1.20083
*
