# ORCA input file
# SCF done       -148.037125675012          0.000912256696
! CAM-B3LYP def2-SVP def2/J RIJCOSX Grid4 TightSCF
%maxcore 5000
%tddft
    Mode sTDDFT
    Ethresh 5.0
    maxcore 5000
end

%pal
  nprocs 6
  end
* xyz 0 1
   C       -0.29256        -2.81764         1.65500
   C        0.07242        -2.44427         0.39706
   C       -0.06221        -1.05461         0.21615
   C       -0.53374        -0.41029         1.36503
   S       -0.80720        -1.49789         2.65193
   C       -0.65038         0.98262         1.08890
   C       -0.24975         1.20940        -0.23443
   C        0.13746        -0.06368        -0.82780
   C        0.58988        -0.27666        -2.09662
   C        0.74774         0.76905        -3.03121
   N        0.87934         1.60553        -3.80416
   C        0.93165        -1.56390        -2.56246
   N        1.21602        -2.60624        -2.94669
   C       -0.34412         2.55113        -0.61039
   C       -0.81355         3.34774         0.41376
   S       -1.13753         2.41349         1.87277
   C       -1.07125         4.75795         0.39772
   C       -1.54233         5.42593         1.51735
   C       -1.85614         6.78427         1.51779
   C       -1.72706         7.56821         0.38763
   C       -1.18713         6.94709        -0.76976
   C       -0.86645         5.54143        -0.77764
   N       -0.38253         5.11418        -1.93711
  Se       -0.28894         6.44650        -3.06676
   N       -0.91998         7.57621        -1.90599
   C       -2.09187         8.96772         0.37065
   C       -2.58927         9.72385        -0.66765
   C       -2.95305         9.20382        -2.01365
   O       -2.71532         9.77974        -3.03579
   O       -3.67506         8.06194        -2.01547
   C       -2.75291        11.09868        -0.31427
   C       -2.40232        11.33556         0.98671
   S       -1.84438         9.93777         1.79109
   C       -3.28625        12.12420        -1.18815
   C       -2.89820        13.44154        -1.24986
   C       -1.77628        13.98589        -0.44266
   O       -0.69628        13.48085        -0.34411
   O       -2.07415        15.11950         0.23400
   C       -3.70222        14.21193        -2.14807
   C       -4.68895        13.44884        -2.71598
   S       -4.65882        11.82260        -2.19814
   C       -3.50246        15.60464        -2.48599
   C       -4.47768        16.50708        -2.84053
   C       -3.93948        17.76290        -3.15141
   C       -2.54610        17.79501        -3.04217
   S       -1.89010        16.29702        -2.56185
   C       -2.09926        19.11418        -3.36138
   C       -3.21375        19.89915        -3.66932
   C       -4.40913        19.08205        -3.55083
   C       -5.70145        19.46391        -3.76515
   C       -6.04599        20.77651        -4.14981
   N       -6.33296        21.84257        -4.45983
   C       -6.78104        18.56956        -3.61318
   N       -7.65852        17.84279        -3.48102
   C       -2.86508        21.22473        -3.99314
   C       -1.51821        21.41196        -3.92460
   S       -0.64000        19.99012        -3.46754
   H       -0.29408        -3.80447         2.07267
   H        0.41617        -3.13227        -0.35339
   H       -0.09311         2.95127        -1.57500
   H       -1.68888         4.86796         2.43072
   H       -2.23451         7.23396         2.42397
   H       -3.80207         7.70328        -1.12769
   H       -2.44823        12.26354         1.52035
   H       -2.97368        15.42894         0.05956
   H       -5.41329        13.76405        -3.44002
   H       -5.52505        16.26734        -2.84761
   H       -3.56320        21.99701        -4.25974
   H       -0.96968        22.31232        -4.11586
*
