# ORCA input file
# SCF done       -210.358334961090          0.000595602432
! CAM-B3LYP def2-SVP def2/J RIJCOSX Grid4 TightSCF
%maxcore 5000
%tddft
    Mode sTDDFT
    Ethresh 5.0
    maxcore 5000
end

%pal
  nprocs 6
  end
* xyz 0 1
   C        2.60402         1.13629         1.85231
   C        3.86183         1.18028         2.38448
   F        4.45098         2.35946         2.62454
   C        4.55464        -0.00907         2.68733
   F        5.78706         0.06424         3.20910
   C        3.97951        -1.22656         2.45368
   C        2.68413        -1.30522         1.90645
   C        1.98286        -0.10338         1.59847
   C        0.68342        -0.15768         1.04519
   C        0.10428        -1.37661         0.80621
   C        0.80871        -2.57036         1.12267
   C        2.06400        -2.54983         1.65834
   C       -0.02292        -3.74574         0.78658
   O        0.28925        -4.90461         0.95159
   C       -1.30930        -3.19093         0.29256
   C       -1.19206        -1.74227         0.24717
   C       -2.09712        -0.87135        -0.29971
   C       -3.29929        -1.23886        -0.94206
   N       -4.28041        -1.44431        -1.50258
   C       -1.92388         0.52842        -0.32879
   N       -1.84081         1.67242        -0.37733
   C       -2.47986        -3.86712         0.12246
   C       -2.71189        -5.27640         0.03565
   C       -4.00258        -5.75588         0.40308
   O       -4.80868        -4.80904         0.92420
   C       -6.09920        -5.08690         1.42685
   C       -4.30778        -7.11046         0.23776
   O       -5.58740        -7.57148         0.51621
   C       -6.35393        -7.88310        -0.63045
   C       -3.32415        -8.00467        -0.22959
   C       -2.07874        -7.50426        -0.62031
   C       -1.78168        -6.17102        -0.49942
   C       -3.57813        -9.43666        -0.29724
   C       -4.32706       -10.10108         0.63251
   C       -4.58481       -11.47677         0.62501
   C       -4.12972       -12.31840        -0.49130
   C       -3.34324       -11.87784        -1.49751
   S       -2.78673       -10.26210        -1.63652
   C       -4.68244       -13.60441        -0.24562
   C       -5.42359       -13.57449         0.93620
   C       -5.99470       -14.83041         1.23813
   C       -5.68312       -15.75894         0.29659
   S       -4.68630       -15.15638        -0.98528
   C       -5.34732       -12.25554         1.50866
   C       -5.96416       -11.89367         2.73856
   C       -5.58238       -10.86775         3.53485
   C       -6.21782       -10.45829         4.75560
   C       -5.52764        -9.54755         5.60498
   O       -4.31319        -9.16780         5.13988
   C       -3.49844        -8.23934         5.82251
   C       -6.12903        -9.12720         6.79060
   O       -5.48082        -8.26727         7.65808
   C       -5.06629        -8.85399         8.87811
   C       -7.42099        -9.58007         7.13615
   C       -8.08643       -10.46886         6.28430
   C       -7.49456       -10.89355         5.12421
   C       -8.07275        -9.03042         8.29020
   C       -9.02885        -9.59902         9.07028
   C       -9.90267        -8.74613         9.91845
   O       -9.73504        -7.58104        10.19602
   C      -11.03784        -9.61449        10.29809
   C      -12.18231        -9.28700        10.96533
   C      -13.15755       -10.28528        11.18764
   C      -12.92594       -11.60826        10.71087
   C      -13.90691       -12.59644        10.92872
   C      -15.06187       -12.28662        11.59016
   C      -15.28920       -10.97856        12.06236
   C      -14.35755        -9.99795        11.86658
   F      -16.43186       -10.70281        12.70620
   F      -15.99329       -13.22773        11.79560
   C      -11.72624       -11.92058        10.03139
   C      -10.79388       -10.93795         9.83146
   C       -9.47968       -10.96945         9.19600
   C       -8.72269       -12.09290         8.98598
   C       -7.35977       -12.05067         8.62860
   N       -6.23361       -12.06669         8.40620
   C       -9.19358       -13.40455         9.19108
   N       -9.54262       -14.49002         9.32593
   H        2.08814         2.05608         1.62486
   H        4.52269        -2.12782         2.69121
   H        0.17644         0.76869         0.82894
   H        2.57663        -3.47161         1.88807
   H       -3.38617        -3.27516         0.07421
   H       -6.80239        -5.33028         0.62780
   H       -6.41395        -4.16080         1.90821
   H       -6.08222        -5.89679         2.15742
   H       -5.87795        -8.65611        -1.24060
   H       -6.51654        -6.99436        -1.25061
   H       -7.30851        -8.25173        -0.26021
   H       -1.33593        -8.18653        -1.00382
   H       -0.82518        -5.80480        -0.82880
   H       -4.76819        -9.50588         1.41721
   H       -2.99928       -12.52239        -2.29116
   H       -6.60000       -15.04200         2.10085
   H       -5.97805       -16.78970         0.26730
   H       -6.76407       -12.55001         3.05630
   H       -4.68976       -10.31681         3.28506
   H       -2.66649        -8.04691         5.14406
   H       -3.11032        -8.65298         6.75587
   H       -4.02811        -7.30820         6.02917
   H       -4.53682        -8.07188         9.41922
   H       -4.39891        -9.70351         8.70057
   H       -5.91690        -9.20055         9.47262
   H       -9.09558       -10.77139         6.52124
   H       -8.03419       -11.55650         4.46722
   H       -7.83975        -7.99342         8.51633
   H      -12.34342        -8.27939        11.31717
   H      -13.74717       -13.60365        10.57678
   H      -14.54657        -9.00144        12.23393
   H      -11.57787       -12.92774         9.67532
*
