# ORCA input file
# SCF done       -175.446542042499          0.000477666261
! CAM-B3LYP def2-SVP def2/J RIJCOSX Grid4 TightSCF
%maxcore 5000
%tddft
    Mode sTDDFT
    Ethresh 5.0
    maxcore 5000
end

%pal
  nprocs 6
  end
* xyz 0 1
   C       -6.88019        14.36383         1.85194
   C       -7.04220        13.53541         2.91902
   C       -6.41906        12.29027         2.70237
   C       -5.79632        12.21564         1.44990
   S       -5.97264        13.65605         0.55325
   C       -5.20039        10.92862         1.31187
   C       -5.44257        10.20553         2.48532
   C       -6.24127        11.02551         3.38751
   C       -6.76538        10.64110         4.58888
   C       -6.59104         9.34334         5.11135
   N       -6.47765         8.28606         5.54359
   C       -7.55112        11.50693         5.37723
   N       -8.18519        12.20716         6.02789
   C       -4.88798         8.92551         2.46706
   C       -4.25540         8.64905         1.27093
   S       -4.31467        10.01960         0.16938
   C       -3.57251         7.46030         0.87444
   S       -2.35777         7.58053        -0.36863
   C       -1.93636         5.92742        -0.16936
   C       -2.66572         5.30649         0.79132
   C       -2.50669         3.86756         1.15317
   C       -3.63684         6.17125         1.39193
   C       -4.55771         5.67328         2.38041
   C       -5.84072         6.06613         2.53503
   C       -6.74007         5.60351         3.53955
   C       -6.39633         4.85441         4.61515
   C       -7.27392         4.45129         5.65440
   S       -6.57316         4.28972         7.22696
   C       -8.10489         4.09799         8.01391
   C       -9.14769         4.22851         7.07766
   C       -8.66887         4.28017         5.72113
   C       -9.60477         4.04505         4.67702
   C       -9.23479         3.64815         3.27499
   F       -8.01124         3.11882         3.14552
   F      -10.07685         2.70366         2.81071
   F       -9.32070         4.65433         2.37819
   C      -10.94854         4.02624         4.96595
   C      -11.41372         4.27288         6.26027
   C      -10.54358         4.36761         7.31956
   O      -11.08440         4.57827         8.55706
   C      -10.64388         5.72925         9.25206
   C       -8.08070         3.68300         9.36931
   C       -9.07974         3.02669        10.01617
   C       -9.01025         2.52202        11.34749
   C       -8.05790         2.83915        12.26494
   C       -8.02217         2.27501        13.56889
   C       -8.81934         1.24606        13.94312
   C       -9.77337         0.65327        12.92968
   C      -10.15139         1.61761        11.78723
   N      -10.67809         0.92603        10.63107
   C      -10.30070        -0.25195        10.41018
   C       -9.39784        -0.98156        11.32002
   N       -9.14207        -0.57121        12.47936
   F       -8.82516        -2.09740        10.87425
   F      -10.74614        -0.88632         9.32990
   C       -8.72306         0.58916        15.22934
   C       -7.57729         0.60857        16.00057
   C       -7.46298        -0.03373        17.25065
   C       -8.48814        -0.73919        17.81183
   C       -9.68506        -0.79368        17.07601
   C       -9.80891        -0.14381        15.79048
   N      -11.04108        -0.36218        15.37077
   O      -11.63832        -1.09420        16.31218
   N      -10.84530        -1.36482        17.34182
   H       -7.24035        15.36618         1.73533
   H       -7.57784        13.80698         3.81027
   H       -4.92219         8.23250         3.28630
   H       -1.16462         5.50760        -0.78395
   H       -1.75953         3.39956         0.51787
   H       -3.45154         3.33952         1.03450
   H       -2.18996         3.76827         2.19113
   H       -4.17394         4.87087         2.99478
   H       -6.25024         6.78565         1.83882
   H       -7.76106         5.94153         3.44734
   H       -5.35359         4.62819         4.79173
   H      -11.66223         3.83869         4.17886
   H      -12.47114         4.35783         6.45021
   H      -11.13219         5.69177        10.22353
   H      -10.95327         6.63608         8.72187
   H       -9.56123         5.74700         9.39114
   H       -7.12413         3.81374         9.85948
   H       -9.99771         2.81421         9.48995
   H       -7.29246         3.55779        12.01618
   H       -7.31976         2.69945        14.27060
   H      -10.68779         0.34099        13.45168
   H      -10.96315         2.27390        12.13105
   H       -6.70428         1.11733        15.62280
   H       -6.51837         0.03598        17.76942
   H       -8.41045        -1.23819        18.76254
*
