# ORCA input file
# SCF done       -210.805352378266          0.000509672160
! CAM-B3LYP def2-SVP def2/J RIJCOSX Grid4 TightSCF
%maxcore 5000
%tddft
    Mode sTDDFT
    Ethresh 5.0
    maxcore 5000
end

%pal
  nprocs 6
  end
* xyz 0 1
   C        3.52813        13.74798         5.74348
   C        2.71835        12.93769         6.47779
   C        1.96337        12.08140         5.65212
   C        2.23369        12.27742         4.29000
   S        3.39954        13.49688         4.03201
   C        1.43060        11.38065         3.53207
   C        0.65851        10.62312         4.42300
   C        0.97047        11.03709         5.78683
   C        0.43001        10.53065         6.93471
   C       -0.53004         9.49877         6.91886
   N       -1.30884         8.65576         6.90930
   C        0.79760        11.00209         8.21196
   N        1.09271        11.38115         9.25328
   C       -0.17660         9.70979         3.78627
   C       -0.05353         9.76365         2.40684
   S        1.12735        10.96363         1.90259
   C       -0.76310         8.98423         1.44586
   C       -1.77834         8.13052         1.80663
   C       -2.52021         7.35181         0.92215
   C       -2.35326         7.48897        -0.53052
   C       -1.40030         8.25253        -1.10772
   S       -0.25949         9.18520        -0.22631
   C       -3.38439         6.69366        -1.10359
   C       -4.14124         6.10322        -0.08955
   C       -5.18299         5.29903        -0.60085
   C       -5.19251         5.30236        -1.95956
   S       -3.94459         6.26937        -2.67126
   C       -3.59172         6.47688         1.18646
   C       -4.07532         6.02972         2.44041
   C       -3.33273         5.95868         3.57855
   C       -3.82608         5.61786         4.85940
   C       -5.14006         5.46191         5.28525
   C       -5.21806         5.17561         6.64257
   C       -3.95647         5.10072         7.26642
   S       -2.67955         5.40001         6.17387
   C       -4.14891         4.81103         8.63499
   C       -5.53390         4.71938         8.88799
   C       -6.24851         4.94288         7.64538
   C       -7.59982         4.93976         7.45562
   C       -8.50320         4.72737         8.51811
   N       -9.23828         4.56361         9.38263
   C       -8.17630         5.15339         6.18665
   N       -8.64148         5.32285         5.15211
   C       -5.82420         4.43607        10.21918
   C       -4.67882         4.29619        10.98310
   S       -3.21228         4.53170        10.03331
   C       -4.59704         3.99607        12.36141
   C       -3.46804         3.69365        13.10278
   C       -3.73154         3.44394        14.44805
   C       -2.71852         2.99004        15.41006
   C       -1.57330         3.71043        15.75564
   C       -0.60548         3.11231        16.56865
   C       -0.78358         1.83589        17.04735
   C       -1.93200         1.11953        16.74571
   C       -2.89715         1.68761        15.93078
   O       -4.03680         1.06431        15.53599
   C       -4.25621        -0.27473        15.91145
   O       -1.27843         4.98711        15.38868
   C       -2.28716         5.89524        15.01365
   C       -5.09351         3.54046        14.76200
   S       -6.02446         3.96509        13.34613
   C       -5.62443         3.48278        16.05655
   C       -6.92914         3.52419        16.47024
   C       -7.24119         3.99030        17.84052
   O       -6.47127         4.12598        18.76365
   C       -8.69159         4.31317        17.81705
   C       -9.22296         3.95515        16.56484
   C      -10.54790         4.22427        16.26895
   C      -11.34899         4.82374        17.23898
   C      -10.81507         5.15820        18.49439
   C       -9.47067         4.90339        18.78735
   C      -11.61441         5.73790        19.51222
   N      -12.17570         6.17264        20.41090
   C      -12.77915         5.18105        16.95618
   O      -13.31639         6.11863        17.47364
   O      -13.42834         4.39786        16.08689
   C       -8.17412         3.30059        15.78104
   C       -8.41527         2.39238        14.78060
   C       -7.44022         1.51951        14.25699
   N       -6.70862         0.73426        13.84997
   C       -9.71207         2.12460        14.30120
   N      -10.76782         1.88643        13.91722
   H        4.20889        14.49487         6.09961
   H        2.66793        12.95708         7.55112
   H       -0.83509         9.03771         4.30332
   H       -2.04889         8.10131         2.85025
   H       -1.28123         8.32788        -2.17694
   H       -5.88825         4.75049        -0.00361
   H       -5.86824         4.78576        -2.61275
   H       -5.10238         5.69037         2.46005
   H       -2.26807         6.13762         3.52601
   H       -5.98572         5.57029         4.63182
   H       -6.81086         4.32234        10.63137
   H       -2.48657         3.63084        12.66485
   H        0.27316         3.68753        16.80989
   H       -0.02984         1.38826        17.67651
   H       -2.06051         0.12605        17.14200
   H       -4.37698        -0.37283        16.99492
   H       -3.44479        -0.92491        15.57156
   H       -5.18177        -0.55683        15.41187
   H       -1.88887         6.88527        15.23951
   H       -3.20600         5.73879        15.58383
   H       -2.50922         5.83903        13.94378
   H       -4.89082         3.52624        16.85714
   H      -10.94024         4.01872        15.28397
   H       -9.05537         5.16566        19.74851
   H      -12.90524         3.65815        15.74652
*
