# ORCA input file
# SCF done       -190.212711821800          0.000559968230
! CAM-B3LYP def2-SVP def2/J RIJCOSX Grid4 TightSCF
%maxcore 5000
%tddft
    Mode sTDDFT
    Ethresh 5.0
    maxcore 5000
end

%pal
  nprocs 6
  end
* xyz 0 1
   C      -17.22683         5.60449        13.78969
   S      -18.35238         6.87806        14.05808
   C      -19.63343         6.06849        13.19447
   C      -20.96433         6.70470        12.99466
   C      -20.96531         7.60137        11.75409
   C      -19.17100         4.88161        12.72907
   C      -17.79498         4.59835        13.06538
   N      -17.32900         3.41058        12.60717
   C      -18.22046         2.75902        11.95218
   S      -19.82753         3.56537        11.81157
   C      -18.05535         1.49185        11.32295
   C      -16.88635         0.82109        11.34139
   C      -16.60631        -0.43943        10.70047
   C      -15.28636        -0.92229        10.72632
   C      -14.96971        -2.09329        10.08209
   C      -15.96016        -2.79479         9.37004
   C      -17.27456        -2.34769         9.36336
   C      -17.58819        -1.18330        10.03119
   C      -15.33883        -3.89780         8.67526
   C      -13.96227        -3.88698         8.95858
   C      -13.63315        -2.79000         9.95064
   C      -13.21826        -3.48081        11.27084
   C      -13.01689        -2.55692        12.46467
   C      -12.53510        -1.85051         9.43207
   C      -12.87172        -1.26430         8.06556
   C      -13.12252        -4.79654         8.36555
   C      -13.63558        -5.71328         7.43215
   C      -15.01739        -5.72998         7.18695
   C      -15.86939        -4.84001         7.80408
   C      -12.72065        -6.57503         6.72595
   C      -12.99484        -7.14564         5.53191
   C      -12.10246        -7.92589         4.74055
   C      -12.48654        -8.28153         3.42972
   C      -11.61204        -8.98980         2.52029
   N      -12.01866        -9.25660         1.28801
   C      -13.22639        -8.88677         0.88751
   C      -14.09414        -8.20891         1.79272
   N      -13.71654        -7.92235         3.01386
   C      -15.38766        -7.83032         1.35390
   N      -16.42153        -7.54349         0.95053
   C      -13.65837        -9.14500        -0.42469
   N      -14.09164        -9.31103        -1.47570
   C      -10.30579        -9.41148         2.90861
   C       -9.95461        -9.10532         4.26005
   C      -10.81829        -8.36717         5.14736
   N      -10.25584        -8.18582         6.33993
   S       -8.79539        -8.87448         6.34928
   N       -8.80483        -9.43172         4.83422
   C       -9.36548       -10.05407         2.10719
   C       -9.35388       -10.39075         0.75885
   C       -8.23561       -10.98966         0.14240
   C       -8.36123       -11.18644        -1.20852
   C       -9.59380       -10.74870        -1.70481
   S      -10.60228       -10.10913        -0.42328
   C      -10.06467       -10.74658        -3.01869
   C       -9.43330       -11.18563        -4.19443
   C      -10.18656       -10.99715        -5.32206
   C      -11.44557       -10.40293        -5.08900
   S      -11.63932       -10.10314        -3.37183
   C      -12.37184       -10.07252        -6.05894
   C      -13.62594        -9.46907        -5.89522
   C      -14.46387        -9.06984        -6.95976
   C      -15.62037        -8.47278        -6.43004
   C      -16.73191        -7.89879        -7.02925
   C      -17.71911        -7.37381        -6.19504
   C      -18.92707        -6.73272        -6.47936
   C      -19.56573        -6.38609        -5.25955
   C      -18.75648        -6.81432        -4.21009
   C      -17.59537        -7.43271        -4.74574
   C      -16.50130        -8.00182        -4.14224
   C      -15.49856        -8.52236        -4.98149
   C      -14.29460        -9.12537        -4.67170
   C      -20.82827        -5.70595        -5.09627
   C      -21.60498        -5.26745        -6.08328
   H      -16.23140         5.67509        14.17567
   H      -21.22111         7.29961        13.87337
   H      -21.71268         5.91720        12.87524
   H      -20.22779         8.39372        11.86088
   H      -21.94491         8.05208        11.61744
   H      -20.72330         7.01889        10.86802
   H      -18.92814         1.11157        10.81313
   H      -16.06219         1.28444        11.86827
   H      -14.53015        -0.34107        11.23318
   H      -18.03722        -2.89548         8.83021
   H      -18.60843        -0.83303        10.02401
   H      -12.29286        -4.02969        11.08155
   H      -13.99003        -4.21362        11.52135
   H      -12.25551        -1.80794        12.26342
   H      -12.69379        -3.14255        13.32285
   H      -13.94480        -2.05664        12.72798
   H      -11.59672        -2.40554         9.36855
   H      -12.39551        -1.03526        10.14312
   H      -12.98114        -2.05258         7.32406
   H      -12.08066        -0.59245         7.73999
   H      -13.80327        -0.70404         8.10889
   H      -12.06127        -4.79265         8.57007
   H      -15.42312        -6.46237         6.50651
   H      -16.92978        -4.86671         7.60165
   H      -11.73682        -6.70290         7.15532
   H      -13.94960        -6.96906         5.05696
   H       -8.45228       -10.30450         2.63637
   H       -7.35915       -11.25095         0.70967
   H       -7.59804       -11.62274        -1.82886
   H       -8.44968       -11.61996        -4.18843
   H       -9.86623       -11.26636        -6.31357
   H      -12.07755       -10.29103        -7.07936
   H      -14.24129        -9.19177        -8.00438
   H      -16.83164        -7.85374        -8.10489
   H      -19.30950        -6.53431        -7.46368
   H      -18.96594        -6.69778        -3.16253
   H      -16.39227        -8.05283        -3.06868
   H      -13.94615        -9.30997        -3.67420
   H      -21.13367        -5.55576        -4.06831
   H      -21.34245        -5.39113        -7.11995
   H      -22.53593        -4.76506        -5.88572
*
