# ORCA input file
# SCF done       -186.501699816469          0.000330008761
! CAM-B3LYP def2-SVP def2/J RIJCOSX Grid4 TightSCF
%maxcore 5000
%tddft
    Mode sTDDFT
    Ethresh 5.0
    maxcore 5000
end

%pal
  nprocs 6
  end
* xyz 0 1
   C       -4.50900        -2.00814         0.35690
   C       -3.74746        -2.53811        -0.65293
   C       -3.12247        -3.80115        -0.59436
   N       -2.59796        -4.82229        -0.61650
   C       -3.47005        -1.90797        -1.88403
   N       -3.17918        -1.46412        -2.90267
   C       -4.73282        -2.61595         1.66169
   C       -5.52672        -1.73975         2.44391
   C       -5.89645        -2.02923         3.73526
   C       -5.45802        -3.23730         4.28496
   C       -4.67006        -4.10873         3.49501
   C       -4.29911        -3.81847         2.18765
   S       -4.25025        -5.54510         4.37341
   C       -5.11215        -4.97797         5.76173
   C       -5.69068        -3.77029         5.58402
   C       -5.87478        -0.55079         1.65038
   O       -6.67451         0.30937         1.96123
   C       -5.16688        -0.71500         0.35071
   C       -5.25805         0.14578        -0.70223
   C       -5.67558         1.50205        -0.60857
   C       -5.42626         2.29936         0.52987
   C       -5.98504         3.62251         0.66552
   N       -5.79266         4.29566         1.81129
   C       -5.11249         3.74474         2.78347
   C       -4.44879         2.48871         2.58845
   N       -4.60333         1.82404         1.47348
   C       -3.59315         1.96359         3.58722
   N       -2.93628         1.53862         4.42436
   C       -4.98155         4.43392         4.01399
   N       -4.86967         4.95736         5.02702
   C       -6.72306         4.23703        -0.37211
   C       -6.81388         3.50422        -1.57334
   C       -6.31205         2.15206        -1.68273
   N       -6.58027         1.61251        -2.87123
   S       -7.36264         2.68884        -3.76716
   N       -7.42514         3.88404        -2.70137
   C       -7.40311         5.50638        -0.20117
   C       -7.54109         6.37791        -1.29453
   C       -8.21749         7.55932        -1.13293
   C       -8.77609         7.90465         0.11125
   C       -8.64251         7.05181         1.19809
   C       -7.96244         5.86328         1.03460
   C       -9.45459         9.17288        -0.02560
   C       -9.31971         9.61421        -1.35436
   C       -8.50282         8.63002        -2.16010
   C       -7.20153         9.27196        -2.67690
   C       -6.34811         9.86283        -1.56118
   C       -9.30374         8.06288        -3.34670
   C      -10.59826         7.38453        -2.91545
   C       -9.89866        10.78976        -1.76550
   C      -10.63191        11.55827        -0.84947
   C      -10.75182        11.10412         0.47156
   C      -10.17120         9.92625         0.89316
   C      -11.29612        12.79387        -1.20868
   C      -11.17527        13.47005        -2.36163
   C      -11.85961        14.70397        -2.68039
   C      -13.10966        15.04702        -2.35320
   C      -14.08747        14.16166        -1.64487
   C      -13.69583        16.39368        -2.72758
   N      -12.76227        17.37327        -3.21361
   C      -12.34565        17.47085        -4.49674
   C      -12.78690        16.73537        -5.54707
   C      -12.33859        16.97941        -6.86873
   S      -12.91975        16.01558        -8.19988
   C      -11.44738        17.93011        -7.34533
   N      -10.72735        18.90685        -6.72464
   C      -10.02619        19.56490        -7.56061
   S      -10.13427        19.08832        -9.25577
   C      -11.25882        17.86235        -8.75854
   C      -11.97648        16.88417        -9.39900
   C      -12.00413        16.57044       -10.79231
   C      -12.72924        15.59674       -11.34203
   H       -6.50088        -1.34091         4.30550
   H       -3.70039        -4.51665         1.62686
   H       -5.13183        -5.59460         6.63929
   H       -6.26477        -3.26071         6.33651
   H       -5.01372        -0.19018        -1.70159
   H       -7.10408         6.11261        -2.24336
   H       -9.07750         7.30249         2.15369
   H       -7.88829         5.17761         1.86283
   H       -7.45898        10.05723        -3.39102
   H       -6.62656         8.51142        -3.20913
   H       -6.89229        10.64164        -1.03131
   H       -5.44100        10.29759        -1.97477
   H       -6.06567         9.09448        -0.84500
   H       -8.67849         7.34114        -3.87575
   H       -9.53280         8.87836        -4.03611
   H      -10.38833         6.54051        -2.26266
   H      -11.13695         7.01958        -3.78684
   H      -11.23952         8.08255        -2.38127
   H       -9.80226        11.11590        -2.78982
   H      -11.31721        11.69902         1.17513
   H      -10.27774         9.59548         1.91532
   H      -11.91835        13.21144        -0.42893
   H      -10.47929        13.13196        -3.11831
   H      -11.27942        15.39156        -3.28470
   H      -13.81624        13.11537        -1.75701
   H      -15.08761        14.31465        -2.04851
   H      -14.12382        14.39653        -0.58082
   H      -14.18672        16.80941        -1.84004
   H      -14.47180        16.25001        -3.48722
   H      -12.21264        17.84716        -2.51557
   H      -11.61679        18.24756        -4.68319
   H      -13.49162        15.92819        -5.42219
   H       -9.38382        20.37856        -7.28656
   H      -11.37076        17.20249       -11.40294
   H      -13.36146        14.96398       -10.74118
   H      -12.71056        15.40794       -12.39991
*
