# ORCA input file
# SCF done       -190.642210935003          0.000315185510
! CAM-B3LYP def2-SVP def2/J RIJCOSX Grid4 TightSCF
%maxcore 5000
%tddft
    Mode sTDDFT
    Ethresh 5.0
    maxcore 5000
end

%pal
  nprocs 6
  end
* xyz 0 1
   C       -5.70090        -2.16375        -0.97420
   C       -4.47773        -2.63510        -0.57900
   C       -4.14081        -4.00383        -0.51397
   N       -3.81082        -5.10099        -0.44608
   C       -3.40315        -1.82688        -0.14852
   N       -2.49379        -1.24173         0.23657
   C       -6.86027        -2.97083        -1.32377
   C       -7.96792        -2.11156        -1.54023
   C       -9.21249        -2.58432        -1.88279
   C       -9.37472        -3.96644        -2.01366
   C       -8.26147        -4.81591        -1.80041
   C       -7.00211        -4.33963        -1.45721
   S       -8.68942        -6.48175        -2.02776
   C      -10.32004        -6.03805        -2.39513
   C      -10.54246        -4.70608        -2.35279
   C       -7.55001        -0.70976        -1.37460
   O       -8.22142         0.27451        -1.59668
   C       -6.10112        -0.76679        -1.02362
   C       -5.28164         0.31223        -0.96481
   C       -5.73095         1.66882        -0.85956
   C       -5.06259         2.70052        -1.55324
   C       -5.49240         4.07610        -1.48651
   N       -4.78256         5.02629        -2.11645
   C       -3.73476         4.67826        -2.82366
   C       -3.34925         3.30269        -2.94432
   N       -4.00742         2.36309        -2.31524
   C       -2.24109         2.95173        -3.75737
   N       -1.34704         2.71039        -4.43094
   C       -2.98898         5.68629        -3.48451
   N       -2.37786         6.48105        -4.03850
   C       -6.60396         4.45641        -0.70404
   C       -7.24250         3.43184         0.01794
   C       -6.79786         2.05916        -0.03354
   N       -7.50241         1.28415         0.79494
   S       -8.63612         2.17267         1.48966
   N       -8.30706         3.57726         0.81000
   C       -7.02855         5.80868        -0.47997
   N       -7.17470         6.79951        -1.40550
   C       -7.07418         6.67773        -2.83405
   C       -7.61036         8.00456        -0.81228
   O       -7.85688         9.00936        -1.44616
   C       -7.68820         7.70105         0.59842
   C       -7.35395         6.33639         0.76733
   C       -7.36438         6.03822         2.18632
   O       -7.10742         5.03932         2.82234
   N       -7.75292         7.25534         2.78174
   C       -7.89316         7.38315         4.20687
   C       -7.93925         8.25329         1.85662
   C       -8.31104         9.57268         2.20599
   C       -8.46807        10.55444         1.27601
   C       -8.83293        11.89313         1.56120
   C       -9.11309        12.51127         2.77319
   F       -9.07657        11.88664         3.95865
   C       -9.44132        13.86070         2.66163
   F       -9.70301        14.58995         3.75258
   C       -9.42815        14.34088         1.35490
   S       -8.96664        13.04832         0.27317
   C       -9.68200        15.61861         0.77761
   N      -10.20239        16.74805         1.36112
   C      -10.70838        16.93206         2.69453
   C      -10.28312        17.82633         0.44067
   O      -10.72406        18.91451         0.73558
   C       -9.75976        17.28478        -0.78816
   C       -9.41775        15.93004        -0.55433
   C       -8.90126        15.39169        -1.78439
   O       -8.50150        14.28218        -2.08058
   N       -8.95171        16.47056        -2.69271
   C       -8.50217        16.28416        -4.04478
   C       -9.46686        17.60151        -2.10824
   C       -9.68943        18.89765        -2.68285
   C       -9.46082        19.32228        -3.92686
   H      -10.03600        -1.90584        -2.04339
   H       -6.18348        -5.02499        -1.31349
   H      -11.02287        -6.81512        -2.62512
   H      -11.49389        -4.24788        -2.55373
   H       -4.20979         0.18470        -1.04656
   H       -7.57907         5.77333        -3.17562
   H       -6.03046         6.65115        -3.15017
   H       -7.55517         7.55695        -3.26342
   H       -7.65110         6.41073         4.63590
   H       -8.91610         7.65093         4.47760
   H       -7.20456         8.13127         4.60386
   H       -8.46529         9.77966         3.25380
   H       -8.30669        10.32798         0.22967
   H       -9.90558        16.93085         3.43201
   H      -11.43819        16.16364         2.94794
   H      -11.19295        17.90924         2.70555
   H       -8.16529        15.24861        -4.11833
   H       -7.66712        16.94770        -4.27534
   H       -9.31491        16.44446        -4.75519
   H      -10.10486        19.58825        -1.95920
   H       -9.05409        18.70719        -4.70785
   H       -9.68822        20.33881        -4.19866
*
