# ORCA input file
# SCF done       -198.563760461024          0.000477537839
! CAM-B3LYP def2-SVP def2/J RIJCOSX Grid4 TightSCF
%maxcore 5000
%tddft
    Mode sTDDFT
    Ethresh 5.0
    maxcore 5000
end

%pal
  nprocs 6
  end
* xyz 0 1
   C       -3.30796        -1.20611         1.07240
   C       -3.16163        -2.04741         0.00011
   C       -2.46885        -3.27430         0.04688
   N       -1.91103        -4.27773         0.02497
   C       -3.72002        -1.82443        -1.27633
   N       -4.17078        -1.73432        -2.32850
   C       -2.85486        -1.46381         2.43242
   C       -3.33130        -0.42707         3.27343
   C       -3.07147        -0.39281         4.62213
   C       -2.31102        -1.43107         5.16874
   C       -1.83645        -2.45934         4.32009
   C       -2.09565        -2.49365         2.95505
   S       -0.91087        -3.62926         5.20779
   C       -1.16431        -2.75140         6.67673
   C       -1.90564        -1.63344         6.51835
   C       -4.07915         0.55894         2.47118
   O       -4.52350         1.61559         2.86798
   C       -4.03548         0.04797         1.07558
   C       -4.42675         0.75763        -0.01825
   C       -5.28711         1.89451         0.01592
   C       -5.09503         2.96942        -0.87692
   C       -5.89641         4.16747        -0.81004
   N       -5.57110         5.21576        -1.58223
   C       -4.58131         5.11217        -2.43587
   C       -3.84507         3.88988        -2.56113
   N       -4.09629         2.87452        -1.77253
   C       -2.82135         3.78506        -3.53526
   N       -2.00195         3.75416        -4.33544
   C       -4.26917         6.23681        -3.23792
   N       -4.02810         7.13607        -3.90631
   C       -6.96904         4.30394         0.10489
   C       -7.21081         3.19021         0.93183
   C       -6.39228         1.99948         0.88236
   N       -6.85431         1.04389         1.68726
   S       -8.14634         1.59436         2.45898
   N       -8.21762         3.05388         1.80165
   C       -7.72461         5.53411         0.21389
   C       -7.95663         6.34322        -0.91095
   C       -8.55206         7.56642        -0.74942
   C       -8.95613         8.00967         0.52442
   C       -8.78861         7.18805         1.63393
   C       -8.17993         5.96313         1.47132
   C       -9.47713         9.34682         0.40016
   C       -9.38753         9.74184        -0.95046
   C       -8.82969         8.61972        -1.79482
   C       -7.53816         9.03575        -2.52354
   C       -6.43959         9.49405        -1.57297
   C       -9.86638         8.13173        -2.82505
   C      -11.17841         7.69256        -2.18619
   C       -9.76946        10.99741        -1.34195
   C      -10.25927        11.90782        -0.38495
   C      -10.36767        11.48438         0.95382
   C       -9.98271        10.22484         1.35284
   C      -10.63325        13.24965        -0.71050
   C      -10.51864        13.85601        -1.92489
   C      -10.87084        15.19462        -2.15633
   C      -10.74020        15.83002        -3.36719
   C      -11.05811        17.17761        -3.66190
   C      -10.82323        17.53947        -4.95393
   C      -10.31010        16.49670        -5.75642
   S      -10.12651        15.03661        -4.81098
   C       -9.98900        16.53617        -7.09949
   C      -10.13296        17.61691        -7.99899
   C       -9.75788        17.31877        -9.27150
   C       -9.30533        15.98395        -9.45932
   S       -9.34986        15.13193        -7.92873
   C       -8.84879        15.49005       -10.65360
   C       -8.36822        14.21200       -11.01053
   O       -7.57911        14.19262       -12.12635
   C       -7.11508        12.94301       -12.27464
   C       -7.58291        12.11531       -11.29930
   C       -7.31319        10.66206       -11.13721
   C       -8.43213        12.91773       -10.47669
   C       -9.24866        12.39079        -9.42194
   C      -10.48927        12.82172        -9.13149
   C      -11.32891        12.29547        -8.07896
   C      -10.89980        11.63199        -7.00817
   H       -3.44552         0.41129         5.23692
   H       -1.70534        -3.29354         2.34801
   H       -0.73432        -3.13340         7.58221
   H       -2.16386        -0.96381         7.31879
   H       -4.03248         0.50472        -0.99453
   H       -7.66756         5.99909        -1.89011
   H       -9.10624         7.51335         2.61323
   H       -8.00858         5.33140         2.32792
   H       -7.77411         9.84149        -3.22172
   H       -7.17289         8.18690        -3.10438
   H       -6.76579        10.35185        -0.98805
   H       -5.55535         9.77477        -2.13960
   H       -6.16614         8.69292        -0.89032
   H       -9.43608         7.29610        -3.38061
   H      -10.06025         8.93978        -3.53369
   H      -11.01153         6.87562        -1.48760
   H      -11.87192         7.35340        -2.95237
   H      -11.63921         8.51687        -1.64597
   H       -9.69211        11.29151        -2.37698
   H      -10.75393        12.18044         1.68499
   H      -10.06450         9.92656         2.38737
   H      -11.02527        13.83992         0.10949
   H      -10.12638        13.31246        -2.77370
   H      -11.26325        15.77501        -1.33126
   H      -11.44992        17.83666        -2.90719
   H      -11.00494        18.52242        -5.34983
   H      -10.51488        18.57224        -7.68742
   H       -9.79949        18.01062       -10.09435
   H       -8.75548        16.21597       -11.45353
   H       -6.46391        12.75921       -13.10706
   H       -6.64859        10.31298       -11.92268
   H       -8.24268        10.09622       -11.18353
   H       -6.84818        10.46698       -10.17180
   H       -8.84141        11.53753        -8.89768
   H      -10.93149        13.59077        -9.75186
   H      -12.38640        12.50428        -8.18269
   H       -9.85460        11.43794        -6.83907
   H      -11.58139        11.27843        -6.25405
*
