# ORCA input file
# SCF done       -210.399738753502          0.000562709077
! CAM-B3LYP def2-SVP def2/J RIJCOSX Grid4 TightSCF
%maxcore 5000
%tddft
    Mode sTDDFT
    Ethresh 5.0
    maxcore 5000
end

%pal
  nprocs 6
  end
* xyz 0 1
   C       -5.41058         0.68474         4.28779
   C       -6.57918         0.77188         5.00794
   C       -6.83982         0.04118         6.18312
   N       -7.10886        -0.52237         7.14768
   C       -7.68065         1.58500         4.67601
   N       -8.62671         2.20476         4.47112
   C       -4.29906        -0.21301         4.59419
   C       -3.30345        -0.05069         3.60215
   C       -2.13006        -0.76240         3.60691
   C       -1.93230        -1.68993         4.63633
   C       -2.93130        -1.84342         5.62424
   C       -4.11628        -1.11652         5.62345
   S       -2.48035        -3.03313         6.80966
   C       -0.97773        -3.30551         5.96850
   C       -0.81880        -2.54624         4.85917
  Br        0.24183        -4.56647         6.63509
   C       -3.73698         0.98783         2.63916
   O       -3.04507         1.47186         1.76570
   C       -5.08776         1.38789         3.07185
   C       -5.83933         2.38430         2.48869
   C       -5.69547         2.85570         1.18239
   S       -6.29882         4.43332         0.74704
   C       -5.79030         4.30553        -0.90320
   C       -5.22027         3.04549        -1.12289
   C       -5.18527         2.22650         0.03795
   N       -4.77833         0.94062        -0.01548
   C       -4.31702         0.51389        -1.15518
   O       -3.88235        -0.72899        -1.29304
   C       -3.88007        -1.52472        -0.10993
   C       -3.28693        -2.87915        -0.44954
   C       -4.27826         1.36990        -2.32978
   O       -3.77916         0.84731        -3.44335
   C       -3.77004         1.69317        -4.58998
   C       -3.21223         0.89926        -5.75674
   N       -4.74326         2.58447        -2.30839
   C       -5.96059         5.40223        -1.80873
   C       -6.67487         6.54395        -1.40140
   C       -6.82771         7.59155        -2.26955
   C       -6.26446         7.54219        -3.55957
   C       -5.55531         6.41886        -3.97039
   C       -5.41023         5.36032        -3.10078
   C       -6.59446         8.76347        -4.24953
   C       -7.37581         9.56930        -3.39656
   C       -7.52214         8.91672        -2.04020
   C       -8.99095         8.73905        -1.63017
   C       -9.77461         7.89958        -2.63267
   C       -6.71286         9.66532        -0.95397
   C       -7.12680        11.10707        -0.69055
   C       -7.90178        10.75260        -3.84637
   C       -7.61156        11.19959        -5.14975
   C       -6.78715        10.40418        -5.96609
   C       -6.29505         9.19186        -5.53783
   C       -8.11622        12.43578        -5.66956
   C       -9.03763        13.24298        -5.07655
   C       -9.48661        14.45766        -5.61964
   C      -10.44922        15.24517        -5.03613
   C      -10.94100        16.48952        -5.49587
   C      -11.90765        17.03890        -4.70638
   C      -12.24269        16.25655        -3.58190
   S      -11.27345        14.79922        -3.54912
   C      -13.19264        16.51393        -2.61029
   C      -14.03553        17.63965        -2.48832
   C      -14.87836        17.58188        -1.41987
   C      -14.76045        16.40693        -0.63574
   S      -13.50712        15.38078        -1.31692
   C      -15.51215        16.10736         0.47150
   C      -15.46877        14.94826         1.27388
   C      -16.34469        14.75686         2.40238
   C      -16.08295        13.53121         2.97450
   C      -16.65860        12.86912         4.08362
   C      -16.17708        11.63090         4.40368
   C      -16.53020        10.70585         5.43779
   C      -15.73485         9.58301         5.32334
   C      -14.85483         9.77391         4.20786
   C      -15.10872        11.01019         3.63753
   C      -14.53243        11.66604         2.53586
   C      -15.01481        12.91198         2.20776
   C      -14.66207        13.81383         1.17163
   C      -15.79606         8.42823         6.18637
   C      -15.03178         7.34404         6.08448
   H       -1.38445        -0.61116         2.84172
   H       -4.84307        -1.26527         6.40431
   H        0.04797        -2.58439         4.22479
   H       -6.60557         2.86883         3.08137
   H       -4.90762        -1.61762         0.26069
   H       -3.29157        -1.00830         0.65602
   H       -3.88224        -3.36756        -1.21610
   H       -3.26945        -3.50293         0.43957
   H       -2.27344        -2.75980        -0.82224
   H       -3.15337         2.57454        -4.37683
   H       -4.79297         2.03367        -4.79010
   H       -2.20223         0.56737        -5.53323
   H       -3.19529         1.51994        -6.64782
   H       -3.83030         0.02524        -5.94225
   H       -7.10294         6.57199        -0.40951
   H       -5.12215         6.37509        -4.95858
   H       -4.86640         4.47845        -3.39497
   H       -9.46001         9.72007        -1.54616
   H       -9.02741         8.26243        -0.64840
   H       -9.75709         8.36368        -3.61656
   H      -10.81046         7.80598        -2.31475
   H       -9.34861         6.90224        -2.71668
   H       -5.66123         9.65285        -1.25280
   H       -6.79796         9.09389        -0.02695
   H       -6.96095        11.72589        -1.56811
   H       -6.52669        11.50898         0.12316
   H       -8.17202        11.17467        -0.40116
   H       -8.53758        11.34535        -3.20910
   H       -6.55686        10.75185        -6.96334
   H       -5.68813         8.58319        -6.19169
   H       -7.72650        12.73642        -6.63484
   H       -9.48026        12.95759        -4.13142
   H       -9.05350        14.80377        -6.54896
   H      -10.56307        16.94061        -6.39657
   H      -12.39016        17.97882        -4.90729
   H      -13.99746        18.45696        -3.18601
   H      -15.59137        18.34792        -1.16899
   H      -16.24208        16.85528         0.75830
   H      -17.08148        15.47049         2.72700
   H      -17.45286        13.33799         4.64792
   H      -17.29308        10.87059         6.17681
   H      -14.11807         9.06775         3.87161
   H      -13.73918        11.19922         1.96941
   H      -13.89892        13.63035         0.44054
   H      -16.54010         8.48635         6.97151
   H      -14.27938         7.23961         5.32190
   H      -15.13386         6.51738         6.76594
*
