# ORCA input file
# SCF done       -228.638171262218          0.000917684002
! CAM-B3LYP def2-SVP def2/J RIJCOSX Grid4 TightSCF
%maxcore 5000
%tddft
    Mode sTDDFT
    Ethresh 5.0
    maxcore 5000
end

%pal
  nprocs 6
  end
* xyz 0 1
   C       -2.23037        -1.49344        -8.34145
   C       -1.26329        -2.36489        -8.77045
   C       -1.52766        -3.63426        -9.32350
   N       -1.68363        -4.67514        -9.78150
   C        0.11840        -2.08870        -8.72845
   N        1.25059        -1.89921        -8.71602
   C       -3.67190        -1.72101        -8.38328
   C       -4.33705        -0.56521        -7.89411
   C       -5.70322        -0.49093        -7.76446
   C       -6.45012        -1.60586        -8.15729
   C       -5.78394        -2.74546        -8.66751
   C       -4.40025        -2.82527        -8.78135
   S       -6.90508        -4.00081        -9.09529
   C       -8.23489        -2.99275        -8.58427
   C       -7.86052        -1.77815        -8.11839
  Br       -9.98866        -3.64183        -8.72010
   C       -3.33624         0.44790        -7.55534
   O       -3.52708         1.59109        -7.15174
   C       -2.02662        -0.17265        -7.78989
   C       -0.85977         0.46436        -7.45282
   N       -0.88604         1.71432        -6.97023
   C        0.17783         2.44346        -6.54890
   S        1.78036         1.76726        -6.57334
   C        2.40936         3.28235        -6.01648
   N        3.79203         3.38623        -5.80929
   O        4.22489         4.45604        -5.42486
   O        4.45634         2.38984        -6.02989
   C        1.44771         4.23776        -5.83589
   C        0.14543         3.77575        -6.11940
   C       -0.98861         4.65597        -6.00591
   C       -2.29208         4.35552        -5.83666
   C       -3.31502         5.34822        -5.79764
   S       -2.95344         7.02965        -6.06020
   C       -4.63599         7.46854        -5.97743
   C       -5.41460         6.35860        -5.71271
   C       -4.67387         5.16439        -5.61171
   C       -5.30265         3.82776        -5.37923
   C       -6.77953         3.89355        -4.97795
   C       -7.43437         2.52828        -5.22327
   O       -6.83802         1.58663        -5.66993
   O       -8.71543         2.43213        -4.88572
   C       -7.52114         5.00985        -5.72879
   O       -8.87608         5.01519        -5.29660
   C       -6.88181         6.36541        -5.42256
   C       -4.93786         8.85065        -6.21509
   C       -6.04812         9.34874        -6.78705
   C       -6.28490        10.73917        -7.10636
   C       -7.31030        11.04186        -8.01604
   C       -7.52890        12.34281        -8.39910
   C       -6.76827        13.38099        -7.83067
   C       -5.77118        13.09847        -6.90716
   C       -5.52913        11.78480        -6.56216
   C       -7.24753        14.64276        -8.34945
   C       -8.31276        14.38482        -9.23064
   C       -8.52633        12.89537        -9.39072
   C       -8.13212        12.55192       -10.84810
   C       -8.11597        11.07123       -11.20270
   C       -9.96761        12.47257        -9.07492
   C      -10.41306        12.92790        -7.68968
   C       -8.96404        15.41163        -9.86449
   C       -8.54380        16.73275        -9.64529
   C       -7.46814        16.97453        -8.77836
   C       -6.82683        15.94604        -8.11987
   C       -9.14632        17.83385       -10.35052
   C      -10.37164        17.83588       -10.92013
   C      -10.91859        18.93414       -11.64172
   C      -10.27020        19.86229       -12.39492
   C       -8.92044        19.92867       -12.92098
   C       -8.11351        18.87222       -13.25449
   C       -6.84643        19.01285       -13.85637
   N       -5.80269        19.07393       -14.33048
   C       -8.47460        17.51626       -13.11953
   N       -8.71425        16.39409       -13.08702
   C       -8.67075        21.31817       -13.29242
   C       -9.89234        22.03489       -13.22666
   C      -10.95805        21.13506       -12.74153
   O      -12.13427        21.38331       -12.60672
   C       -9.98764        23.36260       -13.56631
   C       -8.82187        24.01644       -13.97875
   C       -7.60380        23.29645       -14.02360
   C       -7.50794        21.95176       -13.68797
   S       -6.28656        24.30069       -14.54793
   C       -7.37547        25.65376       -14.70458
   C       -8.65905        25.37120       -14.37863
  Br       -6.71371        27.31109       -15.28115
   H       -6.17758         0.37967        -7.34131
   H       -3.93728        -3.72162        -9.15895
   H       -8.54225        -1.03184        -7.75392
   H        0.10810        -0.01168        -7.54401
   H       -1.82974         2.13299        -6.93743
   H        1.67665         5.23215        -5.49715
   H       -0.72112         5.70563        -6.03930
   H       -2.64215         3.34312        -5.70704
   H       -4.75614         3.28657        -4.60404
   H       -5.21002         3.22710        -6.29046
   H       -6.87472         4.10555        -3.90574
   H       -9.10166         3.31218        -4.71353
   H       -7.47330         4.81012        -6.81075
   H       -9.34909         5.72811        -5.73813
   H       -7.03391         6.58107        -4.35854
   H       -7.39677         7.14197        -5.98638
   H       -4.11992         9.52138        -5.98668
   H       -6.82132         8.67272        -7.12593
   H       -7.91430        10.23828        -8.41191
   H       -5.19329        13.89472        -6.46242
   H       -4.75732        11.56327        -5.84140
   H       -7.13737        12.96614       -11.03089
   H       -8.82714        13.07113       -11.51059
   H       -7.36054        10.54092       -10.62896
   H       -7.87529        10.96074       -12.25766
   H       -9.08461        10.60927       -11.02971
   H      -10.04375        11.38604        -9.13356
   H      -10.63213        12.89669        -9.83009
   H       -9.76723        12.50659        -6.92195
   H      -11.43370        12.60483        -7.49723
   H      -10.37437        14.01199        -7.60985
   H       -9.76065        15.21313       -10.56348
   H       -7.14487        17.99390        -8.62105
   H       -6.00427        16.15112        -7.45136
   H       -8.55793        18.74400       -10.38924
   H      -11.03721        16.99889       -10.76040
   H      -11.98941        19.09099       -11.55009
   H      -10.93230        23.88096       -13.51723
   H       -6.55759        21.44601       -13.73172
   H       -9.45957        26.08708       -14.41779
*
