# ORCA input file
# SCF done       -196.992929889001          0.000982902811
! CAM-B3LYP def2-SVP def2/J RIJCOSX Grid4 TightSCF
%maxcore 5000
%tddft
    Mode sTDDFT
    Ethresh 5.0
    maxcore 5000
end

%pal
  nprocs 6
  end
* xyz 0 1
   C       11.28787       -18.03182        -5.14721
   C       11.49102       -16.71467        -5.00356
   C       12.50001       -15.90700        -5.62616
   C       12.45507       -14.59939        -5.28571
   C       11.41424       -14.26792        -4.37418
   S       10.48932       -15.69133        -3.96072
   C       11.12396       -13.02155        -3.85977
   C       11.78868       -11.79980        -4.12149
   C       11.26664       -10.72682        -3.46630
   C       10.15564       -11.02532        -2.64402
   S        9.80559       -12.75044        -2.74701
   C        9.31359       -10.27723        -1.85031
   C        9.22470        -8.91724        -1.49233
   C       10.12958        -7.84426        -1.73358
   C        9.84922        -6.48955        -1.29395
   N       10.70485        -5.50289        -1.62210
   C       11.81263        -5.77982        -2.25774
   C       12.13561        -7.12937        -2.60163
   N       11.28305        -8.10006        -2.35101
   C       13.35759        -7.45037        -3.23514
   N       14.34541        -7.70450        -3.76003
   C       12.70603        -4.73240        -2.59606
   N       13.46929        -3.92529        -2.87709
   C        8.69151        -6.14235        -0.57147
   C        7.80535        -7.20460        -0.30283
   C        8.07075        -8.55185        -0.74095
   N        7.11599        -9.39602        -0.35634
   S        6.00521        -8.59021         0.48141
   N        6.66795        -7.13163         0.39606
   C        8.40484        -4.79217        -0.11617
   C        7.07377        -4.34977        -0.07885
   C        6.78932        -3.09728         0.40122
   C        7.81720        -2.24963         0.84758
   C        9.13923        -2.67032         0.79725
   C        9.42238        -3.93350         0.32003
   C        7.21813        -1.03570         1.35421
   C        5.82101        -1.12945         1.21358
   C        5.44076        -2.42475         0.53383
   C        4.89738        -2.19561        -0.89502
   C        3.59950        -1.40572        -0.99155
   C        4.46803        -3.25981         1.38145
   C        5.05865        -3.65253         2.73088
   C        5.01150        -0.13956         1.71652
   C        5.58096         0.99371         2.31374
   C        6.97234         1.06776         2.45104
   C        7.79203         0.06337         1.98009
   C        4.69949         2.01925         2.83472
   C        4.91462         3.34589         2.93291
   C        5.98348         4.13158         2.38262
   C        6.66024         3.84671         1.17783
   C        7.76265         4.64990         0.71272
   N        8.45176         4.26676        -0.36462
   C        8.08116         3.19327        -1.02755
   C        6.89242         2.48904        -0.65235
   N        6.22768         2.82103         0.42318
   C        6.42613         1.42502        -1.46159
   N        6.09541         0.56889        -2.14762
   C        8.84821         2.76685        -2.13605
   N        9.44765         2.40069        -3.04218
   C        8.16889         5.85518         1.37112
   C        7.41397         6.18612         2.52285
   C        6.35166         5.33874         3.01169
   N        5.79293         5.83508         4.11791
   S        6.51083         7.21943         4.50011
   N        7.57452         7.25802         3.28992
   C        9.24868         6.57286         0.83939
   C        9.87113         7.73803         1.23227
   C       10.97252         8.27733         0.51500
   C       11.47929         9.42938         1.02964
   C       10.79991         9.86426         2.18988
   S        9.49641         8.76204         2.59644
   C       11.06487        10.98373         2.95118
   C       12.08214        11.95428         2.73597
   C       12.10629        12.94863         3.65209
   C       11.10051        12.83792         4.66876
   S       10.13110        11.38455         4.37210
   C       10.88180        13.66568         5.70049
   H       11.91934       -18.61783        -5.79143
   H       10.49547       -18.54132        -4.63021
   H       13.21376       -16.34390        -6.30154
   H       13.13371       -13.85216        -5.65633
   H       12.63293       -11.73954        -4.78450
   H       11.64917        -9.72789        -3.54372
   H        8.50461       -10.85101        -1.40911
   H        6.28758        -4.99837        -0.42970
   H        9.93683        -2.02873         1.14096
   H       10.44343        -4.27909         0.30963
   H        4.75599        -3.17648        -1.35460
   H        5.66217        -1.66532        -1.46628
   H        2.79744        -1.87729        -0.42881
   H        3.29590        -1.35047        -2.03427
   H        3.74106        -0.38984        -0.63430
   H        4.20526        -4.16273         0.82694
   H        3.55542        -2.68542         1.54545
   H        5.93438        -4.28307         2.59657
   H        4.32482        -4.20327         3.31536
   H        5.35343        -2.76816         3.29227
   H        3.93604        -0.21069         1.65349
   H        7.40288         1.91385         2.96830
   H        8.86284         0.12286         2.11183
   H        3.75541         1.64636         3.21545
   H        4.20734         3.93458         3.50482
   H        9.66786         6.11385        -0.04910
   H       11.35324         7.78666        -0.36362
   H       12.31134         9.96517         0.60932
   H       12.76126        11.87823         1.90559
   H       12.80183        13.76883         3.65393
   H       11.49614        14.53676         5.84549
   H       10.09629        13.48740         6.41169
*
