# ORCA input file
# SCF done       -213.435496507842          0.000461698268
! CAM-B3LYP def2-SVP def2/J RIJCOSX Grid4 TightSCF
%maxcore 5000
%tddft
    Mode sTDDFT
    Ethresh 5.0
    maxcore 5000
end

%pal
  nprocs 6
  end
* xyz 0 1
   C        5.26787         2.25515        -2.44401
   C        6.15173         1.34590        -2.01282
   C        7.55433         1.53215        -1.76815
   C        8.19754         0.42844        -1.33164
   C        7.36761        -0.72120        -1.19331
   S        5.71748        -0.33196        -1.64907
   C        7.73914        -1.96930        -0.76666
   C        9.02889        -2.40498        -0.36203
   C        9.07609        -3.70154         0.02393
   C        7.83030        -4.39792        -0.04348
   S        6.59552        -3.29516        -0.64598
   C        7.66557        -5.69277         0.34419
   C        6.49854        -6.52299         0.36803
   C        6.59964        -7.76837         1.02094
   C        5.50697        -8.59156         1.11066
   C        4.29754        -8.23057         0.48641
   C        4.18715        -7.01682        -0.17778
   C        5.27416        -6.16940        -0.21889
   C        3.34767        -9.30705         0.65834
   C        3.95950       -10.32531         1.40806
   C        5.37290        -9.93686         1.78917
   C        5.41456        -9.81937         3.33028
   C        6.70615        -9.27524         3.92623
   C        6.40342       -10.95042         1.26860
   C        6.28482       -11.17698        -0.23429
   C        3.27032       -11.46794         1.73197
   C        1.95109       -11.62968         1.28807
   C        1.37011       -10.62717         0.50301
   C        2.04823        -9.46416         0.19681
   C        1.17317       -12.80472         1.63222
   C        1.35332       -13.53387         2.74336
   C        0.57600       -14.69012         3.14129
   C        0.52317       -15.02167         4.50327
   C       -0.22052       -16.09924         4.91841
   C       -0.86367       -16.91892         3.97235
   C       -0.81031       -16.60728         2.62019
   C       -0.10905       -15.48866         2.21844
   C       -1.46407       -18.03679         4.66265
   C       -1.21528       -17.89679         6.04045
   C       -0.46088       -16.61416         6.31926
   C       -1.41811       -15.68974         7.10885
   C       -0.92715       -14.26720         7.34160
   C        0.84654       -16.86526         7.08389
   C        1.74647       -17.87250         6.37681
   C       -1.67227       -18.83395         6.92913
   C       -2.36796       -19.96635         6.46216
   C       -2.59755       -20.09471         5.08088
   C       -2.16119       -19.14148         4.18712
   C       -2.81862       -20.93157         7.41900
   C       -3.34596       -22.15924         7.15707
   C       -3.77470       -23.03980         8.16339
   C       -4.25132       -24.30697         7.93252
   C       -4.71589       -25.23598         8.89301
   C       -5.11366       -26.42983         8.36902
   C       -4.97568       -26.51005         6.96584
   S       -4.34471       -25.01793         6.32642
   C       -5.25726       -27.59202         6.14488
   C       -5.77981       -28.84701         6.51076
   C       -5.91804       -29.71015         5.46012
   C       -5.50637       -29.17926         4.21971
   S       -4.95104       -27.53501         4.42279
   C       -5.50618       -29.83442         2.99922
   C       -5.05253       -29.24755         1.82727
   C       -4.99986       -29.87126         0.59232
   C       -4.52010       -29.29941        -0.63577
   C       -4.05394       -28.01859        -0.83821
   C       -3.59724       -27.53042        -2.07695
   N       -3.21030       -27.06804        -3.05565
   C       -3.96356       -27.00868         0.13880
   N       -3.85314       -26.12363         0.86468
   C       -4.61086       -30.32856        -1.67185
   C       -5.14712       -31.50426        -1.09445
   C       -5.41564       -31.26073         0.34065
   O       -5.88237       -32.06486         1.12625
   C       -5.35281       -32.65571        -1.81186
   C       -5.01072       -32.64919        -3.16925
   C       -4.47615       -31.47104        -3.73714
   C       -4.26932       -30.30413        -3.00978
   S       -4.11967       -31.68005        -5.42626
   C       -4.68699       -33.32667        -5.34445
   C       -5.12114       -33.70249        -4.11894
  Br       -4.65146       -34.39549        -6.88684
   H        5.57596         3.26488        -2.65084
   H        4.23241         2.01092        -2.59425
   H        8.01569         2.49011        -1.93157
   H        9.24738         0.39019        -1.09986
   H        9.87604        -1.74261        -0.36548
   H        9.96648        -4.20075         0.36525
   H        8.56451        -6.16514         0.72577
   H        7.55022        -8.05719         1.44511
   H        3.26215        -6.73712        -0.65947
   H        5.18475        -5.22865        -0.73733
   H        5.22532       -10.81358         3.74210
   H        4.58828        -9.17282         3.63798
   H        7.56317        -9.87530         3.63155
   H        6.63840        -9.29635         5.01214
   H        6.87051        -8.24611         3.61977
   H        6.26182       -11.89894         1.79140
   H        7.40739       -10.58822         1.49417
   H        5.30295       -11.57053        -0.48777
   H        7.03762       -11.88786        -0.56783
   H        6.42862       -10.24339        -0.77401
   H        3.74361       -12.25531         2.29956
   H        0.35720       -10.76354         0.15095
   H        1.57624        -8.69351        -0.39422
   H        0.36008       -13.04308         0.95896
   H        2.10332       -13.22095         3.45917
   H        1.07137       -14.41604         5.21019
   H       -1.30323       -17.23472         1.89261
   H       -0.05427       -15.24507         1.16824
   H       -1.61371       -16.16205         8.07442
   H       -2.36574       -15.64769         6.56502
   H        0.01857       -14.25564         7.87714
   H       -1.65883       -13.72799         7.93978
   H       -0.80791       -13.73941         6.39943
   H        0.60651       -17.23025         8.08495
   H        1.38444       -15.92247         7.19093
   H        1.24823       -18.83468         6.28082
   H        2.66580       -18.01546         6.94027
   H        2.00408       -17.52081         5.38014
   H       -1.49009       -18.72837         7.98946
   H       -3.13955       -20.95089         4.71128
   H       -2.35548       -19.25501         3.13127
   H       -2.70445       -20.64674         8.45888
   H       -3.43927       -22.50802         6.13782
   H       -3.72930       -22.70666         9.19261
   H       -4.74131       -24.99311         9.94081
   H       -5.49159       -27.25087         8.95102
   H       -6.04054       -29.08513         7.52643
   H       -6.29780       -30.71302         5.54085
   H       -5.86556       -30.85282         2.97315
   H       -4.70401       -28.22430         1.89724
   H       -5.76337       -33.53598        -1.34236
   H       -3.85757       -29.43305        -3.49105
   H       -5.50322       -34.68090        -3.89105
*
