# ORCA input file
# SCF done       -169.006743622640          0.000761303167
! CAM-B3LYP def2-SVP def2/J RIJCOSX Grid4 TightSCF
%maxcore 5000
%tddft
    Mode sTDDFT
    Ethresh 5.0
    maxcore 5000
end

%pal
  nprocs 6
  end
* xyz 0 1
   C        7.54802        -3.53080        -7.85844
   C        8.24179        -3.93371        -6.78524
   C        9.65847        -3.86535        -6.56971
   C       10.06821        -4.34752        -5.37422
   C        9.01904        -4.83293        -4.54794
   S        7.47701        -4.66003        -5.36469
   C        9.11037        -5.36197        -3.28146
   C       10.25518        -5.54999        -2.47375
   C        9.98508        -6.08161        -1.24869
   C        8.61516        -6.33385        -1.00530
   S        7.67809        -5.90129        -2.42211
   C        8.07628        -6.91719         0.11760
   C        6.72040        -7.14043         0.37403
   S        6.30120        -8.56242         1.29789
   C        4.62855        -8.49871         0.81711
   C        4.37422        -7.29378         0.11301
   C        5.54571        -6.50281        -0.08950
   C        5.41387        -5.17848        -0.58719
   C        6.51434        -4.18644        -0.46007
   O        7.33505        -4.25777         0.42915
   C        6.50207        -3.01903        -1.42247
   C        4.16722        -4.75924        -1.00953
   C        3.03639        -5.56739        -0.87626
   C        3.12216        -6.79911        -0.27885
   C        3.79943        -9.58050         1.11898
   C        2.64333        -9.91643         0.44890
   C        1.81428       -10.98194         0.77922
   C        0.72162       -11.34639         0.01302
   C       -0.21389       -12.37179         0.24615
   C       -1.17872       -12.49033        -0.71834
   C       -1.04502       -11.56664        -1.76953
   S        0.33291       -10.52384        -1.48765
   C       -1.79280       -11.42664        -2.92614
   C       -2.90036       -12.16123        -3.39103
   C       -3.34404       -11.79090        -4.62854
   C       -2.60148       -10.74142        -5.21903
   S       -1.34685       -10.20579        -4.09833
   C       -2.71917       -10.18529        -6.46174
   N       -1.85725        -9.22544        -6.88403
   C       -1.80980        -8.60797        -8.08227
   S       -2.97176        -8.94954        -9.32414
   C       -2.15966        -7.81680       -10.36435
   N       -2.68655        -7.63472       -11.63731
   O       -2.13582        -6.83599       -12.37889
   O       -3.67792        -8.29558       -11.92170
   C       -1.06783        -7.22583        -9.78243
   C       -0.84185        -7.65884        -8.46490
   C        0.22514        -7.23300        -7.60512
   C        1.19014        -6.35452        -7.94653
   C        2.24649        -5.91927        -7.09379
   S        2.79253        -4.28918        -7.33357
   C        3.77694        -4.29928        -5.91905
   C        3.73146        -5.55476        -5.30555
   C        2.89392        -6.49639        -5.99666
   C        2.87330        -7.85087        -5.54533
   C        2.36680        -8.95459        -6.39561
   O        2.43013        -8.91689        -7.60475
   C        1.82755       -10.16986        -5.67393
   C        3.53053        -8.16365        -4.37559
   C        4.28253        -7.21453        -3.66612
   C        4.41563        -5.94114        -4.13650
   C        4.48889        -3.13698        -5.48647
   C        4.54557        -1.98142        -6.15017
   H        8.04944        -3.09462        -8.70406
   H        6.47894        -3.62849        -7.90809
   H       10.30746        -3.45443        -7.32268
   H       11.09303        -4.37218        -5.04771
   H       11.24001        -5.28598        -2.81507
   H       10.72781        -6.28616        -0.49793
   H        8.77940        -7.33840         0.82518
   H        6.18476        -3.31629        -2.41728
   H        7.50080        -2.59096        -1.46627
   H        5.82624        -2.25333        -1.04329
   H        4.03638        -3.75685        -1.38536
   H        2.07652        -5.18650        -1.18994
   H        2.22670        -7.35936        -0.06834
   H        4.15113       -10.25201         1.89260
   H        2.37473        -9.35531        -0.43586
   H        2.01598       -11.55782         1.67230
   H       -0.15308       -12.99751         1.11935
   H       -1.96921       -13.21917        -0.69841
   H       -3.33582       -12.95126        -2.80586
   H       -4.16894       -12.25041        -5.14249
   H       -3.48614       -10.50103        -7.15137
   H       -1.13168        -8.96775        -6.22178
   H       -0.46652        -6.50974       -10.31044
   H        0.24471        -7.64576        -6.60477
   H        1.14664        -5.86254        -8.90793
   H        1.13011       -10.69115        -6.32603
   H        1.34717        -9.90845        -4.73554
   H        2.65195       -10.85085        -5.46864
   H        3.53011        -9.18081        -4.01660
   H        4.80205        -7.51590        -2.77002
   H        5.05902        -5.24079        -3.63099
   H        5.01720        -3.24331        -4.54972
   H        4.03423        -1.84458        -7.08889
   H        5.10658        -1.14424        -5.77611
*
