# ORCA input file
# SCF done       -166.021261133655          0.000427883239
! CAM-B3LYP def2-SVP def2/J RIJCOSX Grid4 TightSCF
%maxcore 5000
%tddft
    Mode sTDDFT
    Ethresh 5.0
    maxcore 5000
end

%pal
  nprocs 6
  end
* xyz 0 1
   C       -2.67904        -2.10796        -1.54827
   S       -3.90013        -1.00463        -2.00312
   C       -3.41666         0.11991        -0.81747
   C       -2.34396        -0.33721        -0.08921
   C       -1.90510        -1.63859        -0.51432
   C       -0.77016        -2.24938         0.11337
   C       -0.18084        -1.56088         1.14794
   C       -0.62090        -0.29764         1.58211
   C       -1.67564         0.33327         0.97868
   O       -2.16578         1.56164         1.29411
   C       -1.56024         2.26628         2.34986
   C       -0.27671        -3.51172        -0.37545
   C        0.94475        -4.00868        -0.11904
   N        1.39589        -5.18661        -0.65249
   C        2.64417        -5.69309        -0.49806
   S        3.78214        -4.92347         0.55108
   C        4.97052        -6.10481         0.10377
   N        6.21309        -5.96326         0.70279
   O        7.08343        -6.77906         0.45160
   O        6.33899        -5.01347         1.47057
   C        4.50396        -7.03838        -0.78875
   C        3.16054        -6.82938        -1.14179
   C        2.37253        -7.61639        -2.05498
   C        2.80483        -8.58982        -2.87567
   N        1.93751        -9.21537        -3.72765
   C        2.24513       -10.00270        -4.82244
   C        3.21805       -10.95455        -4.88883
   S        3.17615       -11.82749        -6.36964
   C        1.83935       -10.90668        -6.92766
   C        1.45391        -9.95819        -6.02690
   N        0.43751        -9.02906        -6.22318
   C        0.56180        -7.73994        -5.80115
   C       -0.40454        -6.79361        -5.82865
   C       -0.25839        -5.47758        -5.29045
   C        0.89209        -4.95852        -4.65457
   C        0.90916        -3.64595        -4.03044
   N        2.00135        -3.23946        -3.39360
   C        3.09035        -3.98512        -3.36229
   C        3.09848        -5.23739        -4.03965
   N        2.01972        -5.69118        -4.63203
   C        4.26929        -6.03259        -4.08889
   N        5.21523        -6.67806        -4.13255
   C        4.23818        -3.56009        -2.66254
   N        5.21028        -3.29772        -2.11208
   C       -0.19791        -2.75796        -4.08472
   C       -1.32316        -3.25713        -4.80188
   C       -1.35791        -4.58392        -5.35993
   N       -2.53001        -4.84687        -5.93774
   S       -3.48605        -3.55546        -5.80222
   N       -2.46451        -2.60503        -4.99420
   C       -0.27739        -1.48087        -3.51032
   C        0.52556        -0.83974        -2.58937
   C        0.19613         0.42099        -2.02832
   C        0.99585         0.81541        -0.99757
   C        2.00128        -0.12457        -0.69811
   S        1.96282        -1.46398        -1.82989
   C        2.92378        -0.15338         0.32869
   C        3.13947         0.78506         1.37426
   C        4.09657         0.41642         2.25788
   C        4.70807        -0.85071         1.97209
   S        3.99250        -1.52075         0.49954
   C        5.66188        -1.49688         2.65885
   H       -2.60558        -3.03370        -2.08041
   H       -3.93388         1.05012        -0.70303
   H        0.65713        -1.99658         1.66914
   H       -0.09227         0.16191         2.40218
   H       -2.10429         3.20594         2.43013
   H       -0.50569         2.47427         2.14106
   H       -1.63895         1.71909         3.29449
   H       -0.92867        -4.06213        -1.04062
   H        1.66376        -3.49841         0.50162
   H        0.76157        -5.68671        -1.26201
   H        5.12198        -7.83097        -1.16628
   H        1.31643        -7.37224        -2.10614
   H        3.83358        -8.90490        -2.92722
   H        1.00324        -8.82614        -3.74461
   H        3.94555       -11.20652        -4.14539
   H        1.42395       -11.09992        -7.89603
   H       -0.32735        -9.27793        -6.83458
   H        1.53242        -7.48149        -5.40823
   H       -1.37710        -7.00850        -6.25059
   H       -1.17134        -0.93759        -3.79513
   H       -0.64568         0.98613        -2.38946
   H        0.87180         1.73549        -0.45404
   H        2.57605         1.70028         1.42939
   H        4.39894         0.99267         3.11460
   H        6.08365        -1.06900         3.55198
   H        6.03032        -2.45730         2.34143
*
