# ORCA input file
# SCF done       -154.787485289513          0.000957828212
! CAM-B3LYP def2-SVP def2/J RIJCOSX Grid4 TightSCF
%maxcore 5000
%tddft
    Mode sTDDFT
    Ethresh 5.0
    maxcore 5000
end

%pal
  nprocs 6
  end
* xyz 0 1
   C       21.76547        16.41711         9.59659
   N       21.30021        15.14785         9.52665
   C       20.57056        14.99266         8.37772
   C       20.58387        16.20688         7.70919
   C       21.33860        17.09787         8.48270
   C       19.96209        13.79022         8.03130
   C       19.42762        12.74339         7.72803
   C       18.80088        11.56178         7.35116
   C       18.86172        10.42056         8.07552
   C       18.22591         9.20032         7.71610
   S       18.41794         7.80640         8.77351
   C       17.43670         6.84303         7.73217
   C       16.99561         7.58592         6.63061
   C       17.43858         8.90808         6.62188
   S       15.99654         6.65425         5.54765
   C       16.17713         5.26363         6.58322
   C       15.69271         3.96176         6.51358
   C       16.10930         3.19170         7.58736
   S       17.12224         4.12269         8.69660
   C       16.97348         5.52612         7.70602
   C       15.85944         1.84380         7.90325
   C       15.11774         0.93506         7.19437
   C       14.91444        -0.42169         7.56140
   C       14.15002        -1.13690         6.69301
   C       13.69588        -0.39191         5.58103
   S       14.27841         1.25921         5.68755
   C       12.92194        -0.80864         4.52120
   C       12.39547        -2.09668         4.26401
   C       11.68549        -2.18031         3.10998
   C       11.59386        -0.96494         2.37001
   S       12.45980         0.29568         3.24289
   C       10.96907        -0.84373         1.16331
   C       10.81435         0.29337         0.30852
   C       10.32106         0.07658        -0.99508
   C       10.18394         1.12971        -1.86004
   C       10.50983         2.43741        -1.45443
   C       10.97232         2.67134        -0.16672
   C       11.12360         1.60734         0.69633
   C       10.27744         3.33584        -2.56120
   C        9.81451         2.58722        -3.65771
   C        9.70796         1.12338        -3.29484
   C        8.25575         0.62293        -3.40193
   C        7.28755         1.43188        -2.54738
   C       10.61974         0.25752        -4.18344
   C       12.07799         0.69751        -4.13584
   C        9.53261         3.19427        -4.85550
   C        9.70591         4.58099        -4.99117
   C       10.14799         5.31402        -3.87987
   C       10.43829         4.70962        -2.67452
   C        9.45863         5.28599        -6.22609
   C        9.20311         4.73407        -7.42805
   C        8.98935         5.47011        -8.63167
   N        8.79470         4.83719        -9.82607
   C        8.62581         5.75349       -10.82385
   C        8.70880         7.01577       -10.24758
   C        8.93591         6.83813        -8.88545
   C        8.41714         5.38905       -12.15217
   C        8.24050         5.06737       -13.30685
   C        8.04033         4.69179       -14.64280
   C        7.88711         5.56066       -15.64031
   H       22.36299        16.75057        10.42231
   H       21.45724        14.42103        10.20483
   H       20.10185        16.41075         6.77394
   H       21.54577        18.12358         8.24985
   H       18.24494        11.59807         6.42358
   H       19.42689        10.40970         8.99799
   H       17.19248         9.61473         5.85173
   H       15.06961         3.59992         5.71894
   H       16.31455         1.48110         8.81606
   H       15.34752        -0.82185         8.46142
   H       13.90026        -2.17533         6.81906
   H       12.56387        -2.92077         4.93425
   H       11.21785        -3.08058         2.75069
   H       10.54813        -1.76582         0.77749
   H       10.07026        -0.92904        -1.30339
   H       11.21347         3.67238         0.15807
   H       11.47123         1.79744         1.69841
   H        8.22292        -0.42455        -3.09384
   H        7.94356         0.67288        -4.44751
   H        7.56844         1.38067        -1.49784
   H        6.27722         1.04308        -2.65366
   H        7.28914         2.47620        -2.85146
   H       10.25833         0.31054        -5.21296
   H       10.54323        -0.78197        -3.85674
   H       12.18012         1.72499        -4.47813
   H       12.68347         0.05898        -4.77529
   H       12.46448         0.63509        -3.12106
   H        9.17259         2.60898        -5.68802
   H       10.27364         6.38279        -3.98221
   H       10.78598         5.29500        -1.83631
   H        9.51574         6.36426        -6.16138
   H        9.16488         3.65725        -7.53553
   H        8.78572         3.83910        -9.95859
   H        8.61375         7.94645       -10.77127
   H        9.04723         7.61742        -8.15821
   H        8.01364         3.62356       -14.82572
   H        7.90958         6.62366       -15.46895
   H        7.73229         5.23205       -16.65330
*
