# ORCA input file
# SCF done       -179.843099670074          0.000595101562
! CAM-B3LYP def2-SVP def2/J RIJCOSX Grid4 TightSCF
%maxcore 5000
%tddft
    Mode sTDDFT
    Ethresh 5.0
    maxcore 5000
end

%pal
  nprocs 6
  end
* xyz 0 1
   C       -1.06847         0.92058         1.42975
   C       -0.54096         0.10298         0.46112
   C        0.48560        -0.83441         0.69167
   N        1.32312        -1.60924         0.82169
   C       -0.97942         0.06980        -0.87835
   N       -1.30457        -0.02266        -1.97623
   C       -0.71668         0.90811         2.84487
   C       -1.57203         1.80527         3.53043
   C       -1.48969         2.01726         4.88449
   C       -0.51750         1.30709         5.59780
   C        0.33407         0.41532         4.90392
   C        0.25124         0.20193         3.53295
   S        1.46791        -0.34976         5.97531
   C        0.78958         0.52409         7.32296
   C       -0.23249         1.34771         6.99006
  Br        1.49865         0.27087         9.04066
   C       -2.49746         2.43807         2.56829
   O       -3.31257         3.30462         2.81357
   C       -2.13540         1.87779         1.24787
   C       -2.56463         2.38286         0.04392
   C       -3.69769         3.18094        -0.17124
   S       -3.67623         4.33900        -1.46529
   C       -5.23036         4.98111        -1.06499
   C       -5.81523         4.23096        -0.02174
   C       -4.94653         3.21326         0.47864
   C       -5.40626         2.30051         1.44244
   C       -6.66803         2.44830         1.94491
   F       -7.12921         1.58751         2.86227
   C       -7.51858         3.47132         1.47781
   F       -8.76239         3.56574         1.97333
   C       -7.11847         4.33513         0.49691
   C       -5.65658         6.12393        -1.78493
   C       -6.66843         6.97655        -1.48462
   C       -6.95160         8.11805        -2.28998
   C       -7.91411         9.04011        -2.08479
   C       -8.93794         9.00578        -1.00058
   C       -8.06950        10.18124        -3.06054
   N       -9.15190         9.92536        -3.99037
   C      -10.44714        10.22456        -3.68349
   C      -11.51802         9.64268        -4.26229
   C      -12.88218         9.99543        -4.04225
   N      -13.32434        10.95968        -3.16936
   C      -14.68553        11.06119        -3.15529
   C      -15.17208        10.13451        -4.05229
   C      -14.03858         9.47902        -4.61246
   N      -14.47816         8.57977        -5.54579
   C      -15.82573         8.63892        -5.59926
   C      -16.33166         9.55923        -4.68422
   C      -17.70082         9.82238        -4.47176
   C      -18.27403        10.41307        -3.37854
   C      -17.74553        10.66274        -2.06511
   C      -16.75410         9.94287        -1.43620
   C      -16.22686        10.26800        -0.17455
   N      -15.71762        10.52752         0.82305
   C      -16.21343         8.74557        -1.94328
   N      -15.79520         7.72361        -2.26115
   C      -18.60409        11.65581        -1.42653
   C      -19.74553        11.85478        -2.24328
   C      -19.61456        11.03196        -3.46871
   O      -20.41536        10.92710        -4.37228
   C      -20.76606        12.70078        -1.88813
   C      -20.64985        13.39377        -0.67706
   C      -19.50317        13.19464         0.12510
   C      -18.47467        12.32822        -0.22733
   S      -19.56103        14.15532         1.57296
   C      -21.10727        14.79971         1.08760
   C      -21.55737        14.32264        -0.09618
  Br      -21.97802        16.04382         2.19048
   H       -2.15569         2.70673         5.37911
   H        0.92609        -0.48330         3.04771
   H       -0.76383         1.96022         7.69534
   H       -1.94008         2.21818        -0.82648
   H       -4.79451         1.47700         1.76855
   H       -7.82713         5.04926         0.11586
   H       -5.04959         6.35205        -2.65381
   H       -7.25151         6.83149        -0.59123
   H       -6.29535         8.25506        -3.14194
   H       -8.85566         8.12507        -0.37384
   H       -9.93842         9.02339        -1.43754
   H       -8.84134         9.88983        -0.36948
   H       -7.15229        10.32012        -3.63948
   H       -8.29260        11.11123        -2.53156
   H       -9.02446         9.09996        -4.56070
   H      -10.55725        11.03887        -2.98053
   H      -11.35758         8.83878        -4.96741
   H      -12.71828        11.50862        -2.58419
   H      -15.16977        11.80120        -2.55165
   H      -13.90627         7.92977        -6.05915
   H      -16.38433         7.99292        -6.24982
   H      -18.37607         9.58856        -5.28755
   H      -21.62968        12.82619        -2.52225
   H      -17.61977        12.20538         0.41724
   H      -22.49030        14.61228        -0.54432
*
