# ORCA input file
# SCF done       -175.123389102755          0.000424897707
! CAM-B3LYP def2-SVP def2/J RIJCOSX Grid4 TightSCF
%maxcore 5000
%tddft
    Mode sTDDFT
    Ethresh 5.0
    maxcore 5000
end

%pal
  nprocs 6
  end
* xyz 0 1
   C       -4.40779         2.29036         1.36299
   C       -3.66981         3.08229         2.21051
   C       -4.11893         4.31025         2.73395
   N       -4.43049         5.31744         3.19045
   C       -2.39492         2.75506         2.71397
   N       -1.37255         2.54196         3.19341
   C       -5.78223         2.54543         0.94975
   C       -6.24686         1.42735         0.21580
   C       -7.51873         1.35439        -0.29479
   C       -8.37626         2.43772        -0.07044
   C       -7.90060         3.55340         0.65652
   C       -6.61268         3.62763         1.17334
   S       -9.12007         4.78297         0.81110
   C      -10.23827         3.79110        -0.08682
   C       -9.72666         2.60229        -0.48445
  Br      -11.97760         4.41651        -0.41225
   C       -5.16735         0.42295         0.11417
   O       -5.22540        -0.63080        -0.48721
   C       -4.01180         1.01037         0.81988
   C       -2.73505         0.50976         0.81515
   C       -2.29581        -0.77189         0.41937
   S       -0.70031        -0.85775        -0.29979
   C       -0.90603        -2.52253        -0.63917
   C       -2.09398        -3.02103        -0.19764
   C       -2.49850        -4.44933        -0.34796
   C       -2.89386        -2.03355         0.44749
   C       -4.11593        -2.36819         1.12529
   C       -4.58964        -1.74429         2.22211
   C       -5.84515        -2.05348         2.82438
   C       -6.39699        -1.28538         3.78583
   C       -7.69221        -1.45651         4.39242
   C       -8.33738        -2.59859         4.66785
   C       -7.78830        -3.97229         4.44410
   C       -9.71355        -2.55947         5.29123
   N      -10.64444        -3.37289         4.54982
   C      -11.16366        -4.53079         4.99480
   C      -11.84964        -5.41064         4.21274
   C      -12.48315        -6.59329         4.64063
   C      -12.67179        -7.08950         5.90704
   C      -13.34885        -8.29714         6.20883
   C      -13.46728        -8.57212         7.53740
   C      -12.88771        -7.59820         8.37861
   S      -12.17208        -6.32619         7.41546
   C      -12.85592        -7.57171         9.75946
   C      -13.38892        -8.51792        10.65895
   C      -13.20770        -8.19345        11.96913
   C      -12.52132        -6.97285        12.18482
   S      -12.10681        -6.25196        10.64373
   C      -12.24302        -6.44758        13.42556
   C      -11.57370        -5.25601        13.72956
   S      -10.92328        -4.27976        12.43510
   C      -10.27461        -3.13114        13.50661
   C      -10.53353        -3.44699        14.82154
   C      -11.28722        -4.65981        14.98036
   C      -11.61856        -5.04194        16.30789
   C      -12.43304        -6.25518        16.63828
   F      -11.83974        -7.41654        16.28430
   F      -12.67898        -6.37985        17.95262
   F      -13.64948        -6.26043        16.05389
   C      -11.19606        -4.26979        17.36494
   C      -10.44585        -3.09775        17.19904
   C      -10.11140        -2.66987        15.94117
   O       -9.40464        -1.55757        15.63839
   C       -8.96050        -0.73940        16.69636
   H       -7.84420         0.48808        -0.84903
   H       -6.29514         4.50202         1.71637
   H      -10.27657         1.87132        -1.04865
   H       -1.93352         1.19599         1.06608
   H       -0.12747        -3.05349        -1.15217
   H       -1.72132        -5.01076        -0.85968
   H       -3.41909        -4.52013        -0.92600
   H       -2.67266        -4.90044         0.62797
   H       -4.66087        -3.21168         0.72411
   H       -4.02242        -0.93652         2.66632
   H       -6.39069        -2.88888         2.41101
   H       -5.85732        -0.39981         4.10217
   H       -8.16675        -0.52830         4.69250
   H       -6.70133        -3.95716         4.45514
   H       -8.11380        -4.37620         3.48482
   H       -8.14446        -4.64746         5.22048
   H      -10.08044        -1.52727         5.32514
   H       -9.67426        -2.94291         6.31553
   H      -10.72988        -3.16596         3.56487
   H      -11.01712        -4.71849         6.04721
   H      -11.92273        -5.19142         3.15476
   H      -12.90912        -7.20334         3.85322
   H      -13.73637        -8.92581         5.42596
   H      -13.96067        -9.44113         7.93365
   H      -13.89123        -9.40602        10.31977
   H      -13.54793        -8.79066        12.79639
   H      -12.59321        -7.05739        14.23873
   H       -9.73627        -2.28125        13.14182
   H      -11.44848        -4.56465        18.37110
   H      -10.15262        -2.55176        18.08006
   H       -8.42513         0.08418        16.22720
   H       -8.28234        -1.28130        17.36243
   H       -9.80102        -0.34428        17.27484
*
