# ORCA input file
# SCF done       -173.890328961916          0.000552666779
! CAM-B3LYP def2-SVP def2/J RIJCOSX Grid4 TightSCF
%maxcore 5000
%tddft
    Mode sTDDFT
    Ethresh 5.0
    maxcore 5000
end

%pal
  nprocs 6
  end
* xyz 0 1
   C       -9.15665        -1.14918         0.58919
   C       -8.02049        -1.69439         0.04526
   C       -7.74517        -3.07621         0.01226
   N       -7.47325        -4.18996        -0.04924
   C       -6.96689        -0.94685        -0.51989
   N       -6.06371        -0.39842        -0.97009
   C      -10.20962        -1.88283         1.28160
   C      -11.14392        -0.95194         1.79824
   C      -12.25365        -1.33464         2.51066
   C      -12.44854        -2.70302         2.72871
   C      -11.51090        -3.62557         2.20716
   C      -10.38959        -3.23794         1.48331
   S      -11.94658        -5.26395         2.58765
   C      -13.36133        -4.69513         3.43298
   C      -13.50287        -3.34832         3.43097
  Br      -14.51892        -5.93295         4.23609
   C      -10.72558         0.41865         1.44002
   O      -11.34029         1.44214         1.66301
   C       -9.47591         0.25898         0.66374
   C       -8.87656         1.25648        -0.06626
   C       -9.03725         2.63882         0.11160
   S       -8.84992         3.68386        -1.26761
   C       -9.23194         5.10500        -0.37220
   C       -9.43915         4.79236         0.98589
   C       -9.30248         3.40070         1.26506
   C       -9.33486         2.95002         2.59613
   C       -9.60064         3.85016         3.58893
   F       -9.63069         3.44569         4.86640
   C       -9.82175         5.21530         3.30243
   F      -10.09154         6.05763         4.31222
   C       -9.72370         5.69420         2.02732
   C       -9.28680         6.39005        -0.96442
   C       -9.00762         6.65807        -2.25937
   C       -9.01293         7.98951        -2.81554
   C       -8.64217         8.23242        -4.08615
   C       -9.39604         9.06055        -1.96867
   C       -9.71793         9.97315        -1.24392
   C      -10.07369        11.08217        -0.46508
   C       -9.16300        11.87995         0.12033
   C       -9.53159        13.07884         0.81673
   C       -8.70463        14.01154         1.31514
   C       -7.21396        13.95534         1.30748
   C       -9.28497        15.30318         1.84165
   N       -9.29497        16.32166         0.80229
   C       -9.70602        16.09451        -0.44294
   C       -9.83396        17.03948        -1.42274
   C      -10.30772        16.76196        -2.71229
   C      -10.44874        15.56221        -3.37350
   C       -9.84769        14.26480        -3.22598
   C       -8.61092        13.95749        -2.70254
   C       -8.00679        12.69176        -2.81646
   N       -7.45620        11.68601        -2.89317
   C       -7.76185        14.88867        -2.08699
   N       -7.03314        15.60507        -1.55993
   C      -10.64580        13.31865        -4.00528
   C      -11.56646        14.04543        -4.79624
   C      -11.42126        15.48696        -4.48842
   O      -12.00588        16.41147        -5.01102
   C      -12.44017        13.43063        -5.65829
   C      -12.41475        12.03195        -5.72530
   C      -11.50999        11.31694        -4.90799
   C      -10.61505        11.93966        -4.04613
   S      -11.66763         9.59903        -5.12491
   C      -12.92455         9.86315        -6.30586
   C      -13.21468        11.16694        -6.52333
  Br      -13.73276         8.38728        -7.13683
   H      -12.94735        -0.60180         2.89183
   H       -9.70655        -3.97843         1.10183
   H      -14.31663        -2.82969         3.90400
   H       -8.26109         0.96654        -0.90998
   H       -9.13228         1.92317         2.84724
   H       -9.85340         6.74770         1.84182
   H       -9.55426         7.20985        -0.31136
   H       -8.73250         5.85561        -2.93105
   H       -8.34536         7.43184        -4.74124
   H       -8.60919         9.23254        -4.48062
   H      -11.13484        11.29034        -0.38363
   H       -8.11593        11.63916         0.01262
   H      -10.60126        13.24614         0.89903
   H       -6.84156        12.99109         0.97924
   H       -6.82854        14.15436         2.30714
   H       -6.81854        14.72152         0.63842
   H       -8.68604        15.68175         2.67131
   H      -10.31031        15.14115         2.19862
   H       -8.94748        17.24077         1.02973
   H      -10.01711        15.07802        -0.64221
   H       -9.63944        18.07387        -1.17621
   H      -10.70898        17.60729        -3.26349
   H      -13.12529        14.00611        -6.26068
   H       -9.95351        11.35201        -3.43135
   H      -13.96142        11.50832        -7.21677
*
