# ORCA input file
# SCF done       -176.972507120683          0.000316711266
! CAM-B3LYP def2-SVP def2/J RIJCOSX Grid4 TightSCF
%maxcore 5000
%tddft
    Mode sTDDFT
    Ethresh 5.0
    maxcore 5000
end

%pal
  nprocs 6
  end
* xyz 0 1
   C       -5.46095        -0.40865         4.02528
   C       -6.03332         0.02830         5.19626
   C       -5.88216        -0.61742         6.43824
   N       -5.78399        -1.09604         7.47792
   C       -6.87130         1.15651         5.29871
   N       -7.57735         2.04997         5.45195
   C       -4.67990        -1.62994         3.85902
   C       -4.37593        -1.78458         2.48459
   C       -3.64160        -2.83989         2.00417
   C       -3.18608        -3.79042         2.92545
   C       -3.49430        -3.62657         4.29565
   C       -4.23846        -2.55762         4.78194
   S       -2.82465        -4.90849         5.25955
   C       -2.14956        -5.63715         3.82676
   C       -2.41136        -4.95847         2.68499
  Br       -1.15876        -7.22335         3.97483
   C       -4.94562        -0.65087         1.72377
   O       -4.80746        -0.43991         0.53440
   C       -5.59931         0.20719         2.73005
   C       -6.01569         1.50181         2.49884
   C       -6.33447         2.07335         1.26553
   S       -6.11200         3.79266         1.06558
   C       -6.59409         3.76797        -0.59496
   C       -6.99292         2.46267        -0.96990
   C       -6.86366         1.51350         0.08331
   C       -7.34041         0.20505        -0.09487
   C       -7.82980        -0.15727        -1.31972
   F       -8.29475        -1.40062        -1.51126
   C       -7.87867         0.76033        -2.38818
   F       -8.35449         0.35717        -3.57773
   C       -7.48738         2.06036        -2.22028
   C       -6.57904         4.91875        -1.39754
   C       -6.09913         6.12808        -0.97861
   C       -6.09021         7.31535        -1.72985
   S       -5.28105         8.73230        -1.04870
   C       -5.69716         9.65740        -2.43168
   N       -5.45311        10.91886        -2.73980
   C       -5.97902        11.24140        -3.90239
   S       -6.84515         9.90365        -4.71207
   C       -6.43694         8.89692        -3.36491
   C       -6.64876         7.58562        -2.97421
   C       -5.86883        12.51281        -4.45472
   C       -5.13681        13.49244        -3.81162
   C       -4.93317        14.82855        -4.22364
   C       -4.13559        15.55058        -3.38321
   C       -3.67125        14.81020        -2.27751
   S       -4.29902        13.16946        -2.32149
   C       -2.82451        15.21576        -1.26200
   C       -2.28963        16.50416        -1.02187
   C       -1.46995        16.55448         0.06006
   C       -1.30624        15.31310         0.74205
   S       -2.26815        14.08473        -0.05743
   C       -0.44154        15.14167         1.78592
   C       -0.05036        13.99357         2.53587
   C       -0.75637        12.78598         2.65957
   O       -1.98792        12.80546         2.11248
   C       -2.83639        11.68077         2.00638
   C       -0.19499        11.67772         3.38200
   O       -0.94000        10.53698         3.40717
   C       -0.44303         9.41251         4.09430
   C        1.02252        11.77681         4.01182
   C        1.72267        12.98999         3.96109
   C        1.18731        14.10089         3.23240
   N        1.98248        15.16402         3.28523
   S        3.27685        14.79687         4.17834
   N        2.89208        13.27261         4.53023
   H       -3.42459        -2.93121         0.95149
   H       -4.44301        -2.47178         5.83614
   H       -2.07190        -5.26552         1.71260
   H       -6.02994         2.18169         3.34321
   H       -7.34757        -0.50541         0.71351
   H       -7.57247         2.75030        -3.04347
   H       -6.96228         4.81639        -2.40156
   H       -5.67588         6.19296         0.01569
   H       -7.19305         6.86164        -3.55081
   H       -6.35492        12.72720        -5.39287
   H       -5.37825        15.21255        -5.12454
   H       -3.86713        16.57995        -3.54179
   H       -2.53295        17.34900        -1.64090
   H       -0.96644        17.44200         0.40111
   H        0.13741        16.02026         2.04849
   H       -3.15869        11.32803         2.98673
   H       -2.36314        10.86512         1.45900
   H       -3.69754        12.03803         1.44176
   H       -1.20306         8.64268         3.97138
   H       -0.30544         9.62116         5.15924
   H        0.50026         9.06396         3.66385
   H        1.45624        10.95771         4.55773
*
