# ORCA input file
# SCF done       -138.281303144625          0.000689941844
! CAM-B3LYP def2-SVP def2/J RIJCOSX Grid4 TightSCF
%maxcore 5000
%tddft
    Mode sTDDFT
    Ethresh 5.0
    maxcore 5000
end

%pal
  nprocs 6
  end
* xyz 0 1
   C       -7.95531        -4.72579         1.45047
   C       -6.86643        -3.96821         1.64190
   C       -6.81146        -2.56746         1.94598
   C       -5.56009        -2.07569         2.08757
   C       -4.52802        -3.03807         1.91043
   S       -5.21653        -4.60657         1.54765
   C       -3.16953        -2.83469         2.00072
   C       -2.48430        -1.63356         2.29808
   C       -1.13028        -1.76645         2.32575
   C       -0.66381        -3.07516         2.05159
   S       -2.02157        -4.13820         1.74582
   C        0.65555        -3.46894         2.03736
   C        1.15690        -4.74299         1.77719
   S        0.14979        -6.09773         1.37587
   C        1.48870        -7.20456         1.27134
   C        2.70164        -6.52722         1.50000
   C        2.51547        -5.14205         1.79442
   C        3.62432        -4.32232         2.05068
   C        4.88053        -4.85974         1.98906
   F        5.95257        -4.08466         2.23188
   C        5.07058        -6.21368         1.65151
   F        6.32265        -6.69749         1.55902
   C        4.00903        -7.03890         1.40699
   C        1.18211        -8.55259         0.99520
   C        1.95304        -9.65487         1.19329
   C        1.52490       -10.96147         0.86164
   S        0.01768       -11.27714         0.01353
   C        0.23078       -13.02234         0.01886
   C        1.41800       -13.31020         0.64347
   C        2.13473       -12.17325         1.10217
   N        3.30354       -12.63305         1.66138
   C        3.36857       -14.01234         1.55458
   O        4.26105       -14.72536         1.93525
   N        2.20134       -14.40757         0.92815
   C       -0.77386       -13.82247        -0.62427
   C       -1.16340       -15.06828        -0.32502
   C       -0.68204       -15.87125         0.83979
   C       -2.25141       -15.72120        -1.13710
   N       -3.50310       -15.64843        -0.40838
   C       -4.55478       -16.45756        -0.72921
   C       -5.84255       -16.19339        -0.44710
   C       -6.92008       -17.09091        -0.71895
   S       -6.67972       -18.68998        -1.40936
   C       -8.37770       -19.06039        -1.43179
   C       -9.07634       -18.01093        -0.93575
   C       -8.26323       -16.90975        -0.53533
   N       -9.12380       -15.93661        -0.06348
   C      -10.42921       -16.37485        -0.15034
   O      -11.41886       -15.76677         0.17650
   N      -10.38225       -17.65007        -0.68620
   H       -8.94029        -4.29887         1.51752
   H       -7.88210        -5.77422         1.22706
   H       -7.71432        -1.99175         2.04601
   H       -5.33478        -1.04925         2.31666
   H       -3.00525        -0.71185         2.48527
   H       -0.44581        -0.96336         2.53625
   H        1.38192        -2.69978         2.26183
   H        3.50962        -3.27743         2.28755
   H        4.19482        -8.05761         1.11481
   H        0.17686        -8.72067         0.62500
   H        2.92371        -9.58472         1.66037
   H        4.03454       -12.08119         2.07467
   H        1.99753       -15.36467         0.70274
   H       -1.28313       -13.30629        -1.42971
   H       -0.20931       -15.24337         1.58909
   H        0.02072       -16.64047         0.51635
   H       -1.53198       -16.37966         1.29273
   H       -2.02016       -16.77884        -1.29438
   H       -2.33129       -15.23508        -2.12124
   H       -3.74973       -14.71686        -0.10147
   H       -4.28605       -17.39600        -1.19483
   H       -6.11652       -15.25347         0.01372
   H       -8.70917       -20.00584        -1.80505
   H       -8.87172       -15.03361         0.29605
   H      -11.20260       -18.20380        -0.85738
*
