# ORCA input file
# SCF done       -167.719201991748          0.000275488535
! CAM-B3LYP def2-SVP def2/J RIJCOSX Grid4 TightSCF
%maxcore 5000
%tddft
    Mode sTDDFT
    Ethresh 5.0
    maxcore 5000
end

%pal
  nprocs 6
  end
* xyz 0 1
   C        2.48207         9.06676        -2.96476
   C        2.72082         8.95919        -1.59776
   C        2.14738         7.88885        -0.83357
   N        2.46201         7.74266         0.47107
   C        3.20013         8.65514         1.02540
   C        3.69300         9.76820         0.29289
   N        3.49379         9.89036        -0.98367
   C        1.29107         6.96024        -1.45467
   C        1.02216         7.10519        -2.83121
   C        1.64724         8.14608        -3.59121
   N        1.41840         8.24417        -4.92615
   C        0.59247         7.39731        -5.46510
   C       -0.07861         6.41311        -4.70119
   N        0.13428         6.27422        -3.42588
   C        0.66656         5.89786        -0.70655
   N        0.10004         6.07279         0.46235
   C       -0.50049         4.90072         0.76739
   C       -0.33162         3.91820        -0.31650
   C       -0.99980         2.64995         0.03112
   O       -1.11246         1.64260        -0.63316
   C       -1.52056         2.92474         1.38257
   C       -1.20698         4.31100         1.78642
   N       -1.65782         4.55566         3.04095
   C       -2.20331         3.43133         3.43573
   C       -2.13974         2.36651         2.45482
   C        0.47261         4.52464        -1.24389
   C        1.07462         4.06646        -2.44737
   S        2.71907         4.46515        -2.79312
   C        2.66419         3.72917        -4.37081
   C        1.40601         3.12950        -4.58560
   C        0.51854         3.29743        -3.48218
   C       -0.77262         2.76082        -3.53316
   C       -1.17066         2.00712        -4.61603
   C       -2.50279         1.40565        -4.62619
   C       -3.10940         0.95280        -3.53643
   C       -0.27255         1.79810        -5.70205
   C       -0.68496         0.94321        -6.85935
   C        0.98349         2.35447        -5.67761
   C        3.81219         3.79391        -5.17776
   C        3.84718         3.76683        -6.54343
   C        5.06324         3.73549        -7.25317
   N        6.22230         3.38353        -6.68981
   C        7.11570         3.32862        -7.68230
   C        6.49716         3.67104        -8.98146
   C        7.50079         3.65757       -10.06332
   O        7.35465         3.94029       -11.23278
   C        8.72011         3.24702        -9.35081
   C        8.44967         3.06586        -7.90974
   N        9.57891         2.72195        -7.25111
   C       10.51543         2.67965        -8.17388
   C       10.05126         3.00298        -9.50052
   C        5.19659         3.96046        -8.70671
   C        4.19697         4.47373        -9.61179
   C        4.05106         3.90781       -10.89009
   C        3.20852         4.53293       -11.86716
   N        3.13342         4.01840       -13.12066
   C        3.84862         2.97045       -13.39034
   C        4.62428         2.31250       -12.39865
   N        4.70184         2.76055       -11.18418
   C        2.49481         5.68389       -11.54842
   C        2.60997         6.23570       -10.27624
   C        3.46439         5.63075        -9.29501
   N        3.61941         6.20595        -8.07773
   C        2.99050         7.31833        -7.84395
   C        2.13566         7.91047        -8.81030
   N        1.94009         7.37882        -9.97830
   H        2.92192         9.87364        -3.52838
   H        3.45249         8.51310         2.06713
   H        4.29187        10.53249         0.76942
   H        0.42348         7.48343        -6.53012
   H       -0.79589         5.73902        -5.14979
   H       -2.65237         3.35822         4.41092
   H       -2.51730         1.37186         2.58753
   H       -1.44789         2.92742        -2.71226
   H       -2.98747         1.32231        -5.58994
   H       -2.63431         0.97649        -2.56963
   H       -4.09264         0.51596        -3.58039
   H       -1.03119        -0.02785        -6.50933
   H        0.14720         0.79246        -7.54236
   H       -1.50111         1.41026        -7.41101
   H        1.66802         2.16454        -6.48938
   H        4.75917         3.93898        -4.67336
   H        2.93647         3.80821        -7.12171
   H       11.52569         2.42117        -7.90732
   H       10.65596         3.03188       -10.38539
   H        3.79511         2.58793       -14.40074
   H        5.14819         1.39225       -12.61683
   H        1.89431         6.17396       -12.29727
   H        3.13009         7.76908        -6.87063
   H        1.60710         8.82962        -8.59439
*
