# ORCA input file
# SCF done       -148.975111175283          0.000388927030
! CAM-B3LYP def2-SVP def2/J RIJCOSX Grid4 TightSCF
%maxcore 5000
%tddft
    Mode sTDDFT
    Ethresh 5.0
    maxcore 5000
end

%pal
  nprocs 6
  end
* xyz 0 1
   C        3.81676        -0.09169        -0.10878
   C        2.78046         0.09254        -1.01879
   C        1.87680         1.20085        -0.89580
   N        0.98648         1.45372        -1.87790
   C        0.89885         0.60806        -2.86047
   C        1.70193        -0.55893        -2.91433
   N        2.63535        -0.78906        -2.04146
   C        1.96642         2.07313         0.21146
   C        3.06560         1.91102         1.08390
   C        3.98777         0.82664         0.92273
   N        5.03608         0.70023         1.77375
   C        5.17503         1.59361         2.70701
   C        4.26091         2.66356         2.86826
   N        3.23566         2.80075         2.07978
   C        1.02524         3.12080         0.46231
   C       -0.30689         3.21326         0.09647
   F       -1.01178         2.23668        -0.48319
   C       -0.91423         4.41147         0.48908
   F       -2.22159         4.61990         0.30063
   C       -0.06381         5.26702         1.16897
   S        1.47580         4.49804         1.42179
   C       -0.31257         6.57322         1.69020
   C        0.43824         7.03699         2.79424
   C        0.18125         8.30196         3.41241
   N        0.81246         8.61259         4.56067
   C        1.73082         7.80962         5.01118
   C        2.07298         6.61995         4.33039
   N        1.40922         6.23973         3.27818
   C       -0.77576         9.18903         2.86646
   C       -1.52602         8.72132         1.76264
   C       -1.27332         7.45588         1.14715
   N       -1.90740         7.13499         0.00268
   C       -2.82843         7.93536        -0.44780
   C       -3.17260         9.12433         0.23347
   N       -2.50431         9.51099         1.28051
   C       -1.03171        10.50296         3.37337
   C       -0.23348        11.34266         4.13261
   F        1.04334        11.11660         4.45800
   C       -0.84653        12.55826         4.46510
   F       -0.23271        13.43647         5.26472
   C       -2.13640        12.68249         3.98210
   S       -2.57141        11.25931         3.08642
   C       -3.05970        13.77344         4.09696
   C       -2.65801        15.11378         4.28791
   C       -3.63723        16.13856         4.51630
   N       -3.23924        17.40834         4.78682
   C       -1.96628        17.66348         4.76992
   C       -1.01266        16.67939         4.40589
   N       -1.35459        15.44681         4.17904
   C       -4.99777        15.85481         4.45781
   C       -5.41006        14.55990         4.15840
   C       -4.44391        13.51787         3.97855
   N       -4.84757        12.26512         3.68900
   C       -6.12193        12.03806         3.56150
   C       -7.07738        13.06826         3.74108
   N       -6.73323        14.28601         4.03677
   H        4.49216        -0.92406        -0.21654
   H        0.19713         0.84794        -3.64721
   H        1.58589        -1.28408        -3.70856
   H        6.02268         1.47914         3.36929
   H        4.37725         3.39602         3.65438
   H        2.20052         8.08589         5.94474
   H        2.86123         5.96654         4.67628
   H       -3.30284         7.65491        -1.37769
   H       -3.97046         9.77070        -0.10414
   H       -1.66673        18.67457         5.01140
   H        0.03336        16.92408         4.28354
   H       -5.72290        16.63352         4.62699
   H       -6.41648        11.02607         3.32068
   H       -8.13663        12.87091         3.64404
*
