# ORCA input file
# SCF done       -186.158845544615          0.000219481781
! CAM-B3LYP def2-SVP def2/J RIJCOSX Grid4 TightSCF
%maxcore 5000
%tddft
    Mode sTDDFT
    Ethresh 5.0
    maxcore 5000
end

%pal
  nprocs 6
  end
* xyz 0 1
   C       -3.53815        -0.58761        -5.18117
   S       -3.11810         0.99949        -5.66406
   C       -4.19670         1.69833        -4.47888
   C       -4.85436         0.70663        -3.77479
   C       -4.45346        -0.60151        -4.16704
   C       -4.95431        -1.81883        -3.51296
   O       -4.66281        -2.93868        -3.89057
   C       -5.80362        -1.56096        -2.33187
   C       -6.15411        -2.62988        -1.51048
   C       -6.93084        -2.43206        -0.38593
   C       -7.39565        -1.16174        -0.05935
   C       -8.19141        -0.92478         1.18971
   C       -7.26199        -0.48920         2.32510
   C       -7.06786        -0.09952        -0.89069
   C       -6.27478        -0.27895        -2.01549
   C       -5.98046         0.90529        -2.85578
   O       -6.67184         1.90510        -2.83344
   C       -4.23901         3.08877        -4.17330
   N       -4.12141         4.13554        -5.05709
   C       -4.08310         4.04570        -6.49437
   C       -5.40449         3.54314        -7.06895
   C       -4.21083         5.38142        -4.39876
   O       -4.17306         6.45255        -4.98175
   C       -4.33642         5.03591        -3.01214
   C       -4.35579         3.62879        -2.90120
   C       -4.44787         3.29511        -1.49806
   O       -4.47831         2.23116        -0.91198
   N       -4.49866         4.53822        -0.84080
   C       -4.65465         4.57122         0.59227
   C       -3.32686         4.77245         1.32176
   C       -4.43660         5.59812        -1.73057
   C       -4.50556         6.97528        -1.51411
   C       -4.54017         7.65776        -0.31595
   N       -4.71407         8.96597        -0.21859
   N       -4.94397         9.80756        -1.29706
   C       -5.55757        11.01413        -0.76949
   C       -7.09289        10.96746        -0.78259
   C       -7.68045         9.71648        -0.12576
   C       -7.61194        12.29918        -0.20012
   C       -6.79343        12.80309         1.04581
   N       -7.74192        13.24624         2.05297
   S       -9.09921        12.21272         1.89655
   N       -9.01283        12.18311         0.17487
   C       -5.90943        11.72151         1.68239
   C       -5.14041        12.33342         2.85137
   C       -4.96401        11.09352         0.64614
   N       -4.72504         9.69236         0.94896
   C       -4.06443         9.24480         2.08920
   C       -4.61745         8.16689         2.80586
   C       -3.94683         7.61326         3.94304
   N       -4.52212         6.60400         4.61390
   C       -5.69117         6.16110         4.22656
   C       -6.34993         6.71559         3.11948
   N       -5.81785         7.68305         2.41462
   C       -2.71234         8.14001         4.38965
   C       -2.24745         9.31431         3.74417
   C       -2.89144         9.84980         2.58071
   N       -2.35802        10.91322         1.94565
   C       -1.25510        11.43437         2.42332
   C       -0.66242        10.95624         3.60051
   N       -1.16261         9.92763         4.23577
   C       -1.95250         7.56090         5.44813
   S       -0.70442         8.51388         6.21955
   C       -0.32990         7.22901         7.29684
   C       -1.06480         6.11591         7.05826
   C       -1.99496         6.29022         6.00800
   S       -2.97926         4.94305         5.47845
   H       -3.08948        -1.43528        -5.66044
   H       -5.79621        -3.61430        -1.77430
   H       -7.18334        -3.27145         0.24633
   H       -8.71655        -1.83710         1.47907
   H       -8.93138        -0.14221         1.01136
   H       -6.53665        -1.27041         2.54077
   H       -7.83353        -0.28577         3.22774
   H       -6.71976         0.40999         2.04271
   H       -7.41788         0.89901        -0.67400
   H       -3.25838         3.39591        -6.80409
   H       -3.88434         5.06259        -6.84598
   H       -5.63084         2.54447        -6.70208
   H       -5.34791         3.51232        -8.15355
   H       -6.21390         4.20784        -6.77725
   H       -5.06006         3.59265         0.86927
   H       -5.38571         5.33761         0.86314
   H       -2.67248         3.92725         1.12461
   H       -3.49557         4.83393         2.39454
   H       -2.82143         5.67768         0.99011
   H       -4.49783         7.53913        -2.43639
   H       -4.41065         7.15449         0.62246
   H       -5.50655         9.34466        -2.00764
   H       -5.22175        11.85947        -1.37878
   H       -7.41347        10.94879        -1.83190
   H       -7.26258         9.50434         0.85217
   H       -7.51554         8.84677        -0.75936
   H       -8.75283         9.85101        -0.01783
   H       -7.52111        13.05473        -0.99042
   H       -6.16039        13.64797         0.75607
   H       -8.00535        14.22099         1.94334
   H       -9.58483        12.91800        -0.22656
   H       -6.57345        10.95361         2.08518
   H       -4.39189        13.03783         2.49482
   H       -4.64245        11.56157         3.42955
   H       -5.83428        12.85751         3.50272
   H       -4.01404        11.64292         0.63027
   H       -6.11091         5.34584         4.79762
   H       -7.32035         6.36280         2.79908
   H       -0.84466        12.27466         1.88043
   H        0.20586        11.42538         4.04000
   H        0.43464         7.35976         8.03688
   H       -0.96752         5.19403         7.60463
   H       -2.12400         4.03254         5.99721
*
