# ORCA input file
# SCF done       -188.823747098760          0.000778646052
! CAM-B3LYP def2-SVP def2/J RIJCOSX Grid4 TightSCF
%maxcore 5000
%tddft
    Mode sTDDFT
    Ethresh 5.0
    maxcore 5000
end

%pal
  nprocs 6
  end
* xyz 0 1
   C       -4.88555        -3.01634        -3.96059
   O       -4.73976        -4.36545        -4.06321
   C       -4.08720        -4.74375        -2.96610
   C       -3.80417        -3.64843        -2.14060
   C       -4.33506        -2.52390        -2.81076
   C       -3.09904        -4.08926        -0.94992
   S       -2.55563        -3.19563         0.29776
   C       -2.98450        -5.54145        -1.13045
   C       -3.57822        -5.91643        -2.34351
   O       -3.49305        -7.22985        -2.54200
   C       -2.84192        -7.74087        -1.45163
   C       -2.51044        -6.72100        -0.55513
   C       -2.60868        -9.13402        -1.34905
   C       -2.96374       -10.01015        -2.32814
   C       -2.83296       -11.41347        -2.35936
   S       -3.18307       -12.17457        -3.88602
   C       -2.85402       -13.76723        -3.29934
   C       -2.47671       -13.70685        -1.94465
   C       -2.48343       -12.38593        -1.40384
   C       -2.18906       -12.21750        -0.03886
   C       -1.86702       -13.28844         0.75386
   C       -1.55725       -13.08290         2.20340
   C       -1.83291       -14.59915         0.20394
   C       -1.47466       -15.76291         1.07237
   C       -2.14592       -14.79191        -1.11611
   C       -2.87397       -14.92174        -4.11469
   C       -3.41766       -15.08234        -5.34862
   C       -4.29920       -14.18640        -6.02996
   C       -4.27732       -14.03117        -7.42738
   C       -3.43315       -14.74192        -8.40717
   O       -2.63085       -15.61194        -8.24684
   O       -3.72030       -14.22200        -9.64567
   C       -4.67644       -13.23609        -9.55157
   O       -5.07820       -12.65981       -10.51954
   C       -5.03773       -13.09773        -8.13069
   C       -5.90819       -12.18483        -7.49124
   C       -6.09520       -12.49992        -6.12078
   C       -5.33798       -13.43783        -5.43153
   C       -5.91700       -13.56238        -4.07785
   O       -5.59337       -14.24772        -3.15377
   O       -7.00320       -12.72266        -4.02007
   C       -7.18847       -12.07482        -5.22266
   O       -8.12847       -11.36559        -5.41901
   C       -6.52334       -11.05450        -8.08835
   S       -7.10576       -11.04964        -9.71779
   C       -7.75333        -9.45489        -9.57617
   C       -7.45890        -8.90341        -8.31234
   C       -6.75719        -9.80897        -7.47063
   C       -6.30190        -9.36283        -6.21980
   C       -6.59797        -8.09975        -5.77568
   C       -6.12281        -7.64441        -4.43393
   C       -7.35079        -7.21456        -6.59336
   C       -7.67363        -5.84067        -6.09570
   C       -7.75300        -7.61333        -7.84229
   C       -8.45259        -8.83607       -10.63327
   C       -8.64449        -9.40087       -11.85478
   C       -9.33521        -8.79359       -12.92877
   O       -9.42597        -9.49149       -14.10516
   C      -10.10373        -8.72213       -14.94817
   C      -10.47301        -7.50680       -14.34704
   C       -9.97636        -7.55617       -13.04511
   C      -11.21257        -6.68271       -15.30475
   S      -11.84122        -5.20013       -15.06981
   C      -11.24884        -7.50052       -16.50865
   C      -10.58384        -8.71690       -16.28443
   O      -10.60124        -9.48207       -17.36811
   C      -11.27978        -8.77856       -18.32846
   C      -11.69647        -7.55078       -17.83677
   C      -11.43335        -9.39928       -19.61431
   C      -12.05731        -8.85497       -20.65693
   H       -5.39571        -2.52835        -4.76659
   H       -4.31723        -1.50147        -2.49566
   H       -1.99796        -6.84648         0.37631
   H       -2.11584        -9.45002        -0.44557
   H       -3.38897        -9.58127        -3.22800
   H       -2.23663       -11.23569         0.40162
   H       -2.24026       -13.65840         2.82671
   H       -1.64522       -12.03353         2.47242
   H       -0.54433       -13.41437         2.42958
   H       -0.48516       -15.62735         1.50748
   H       -1.47849       -16.68611         0.49924
   H       -2.18561       -15.86200         1.89184
   H       -2.15066       -15.79034        -1.52515
   H       -2.32401       -15.76237        -3.71205
   H       -3.13667       -15.96100        -5.91268
   H       -5.69693       -10.01624        -5.60744
   H       -5.47363        -6.77619        -4.53368
   H       -5.57378        -8.43418        -3.92867
   H       -6.96725        -7.35852        -3.80806
   H       -8.28588        -5.89649        -5.19626
   H       -8.21710        -5.27567        -6.84859
   H       -6.76233        -5.30044        -5.84198
   H       -8.29340        -6.92675        -8.47640
   H       -8.84711        -7.84960       -10.43814
   H       -8.24258       -10.38455       -12.05672
   H      -10.05929        -6.81185       -12.28104
   H      -12.24547        -6.80518       -18.37278
   H      -10.98888       -10.38254       -19.68827
   H      -12.50619        -7.87849       -20.60722
   H      -12.13494        -9.37615       -21.59401
*
