# ORCA input file
# SCF done       -134.976142809848          0.000732363719
! CAM-B3LYP def2-SVP def2/J RIJCOSX Grid4 TightSCF
%maxcore 5000
%tddft
    Mode sTDDFT
    Ethresh 5.0
    maxcore 5000
end

%pal
  nprocs 6
  end
* xyz 0 1
   C       -5.16230         4.70880         7.07646
   S       -6.28253         5.54425         8.10493
   C       -7.59496         5.27952         7.01080
   C       -7.17664         4.58737         5.92324
   C       -5.77776         4.25538         5.95440
   C       -5.45099         3.52563         4.75501
   C       -6.57167         3.39050         3.98893
   C       -7.73406         4.05193         4.67604
   O       -8.86807         4.10743         4.25523
   C       -6.81675         2.77208         2.73084
   C       -5.96475         2.11586         1.91374
   C       -6.42280         1.56512         0.67708
   O       -7.73755         1.71363         0.35222
   C       -7.97199         1.13465        -0.83671
   C       -6.76649         0.59213        -1.30135
   C       -5.78252         0.87410        -0.32330
   N       -6.53480        -0.10056        -2.49772
   O       -7.48033        -0.26580        -3.25587
   O       -5.40707        -0.49621        -2.71315
   C       -9.30249         1.19289        -1.31975
   S       -9.86650         0.52455        -2.84189
   C      -11.48111         1.06019        -2.53714
   C      -11.59282         1.70844        -1.35070
   C      -10.35497         1.79104        -0.64689
   C      -10.56238         2.48420         0.58230
   C      -11.87861         2.84598         0.69191
   C      -12.62775         2.37754        -0.52680
   O      -13.80306         2.52515        -0.75488
   C      -12.51140         3.55476         1.75187
   C      -11.84107         3.99681         2.84147
   C      -12.37905         4.71392         3.94154
   O      -13.69322         5.06010         4.03342
   C      -13.88698         5.72881         5.18419
   C      -12.65682         5.81712         5.85828
   C      -11.70309         5.16424         5.05090
   N      -12.35116         6.41786         7.08526
   O      -13.24774         6.95649         7.71583
   O      -11.19182         6.36671         7.45717
   C      -15.20053         6.17593         5.46249
   S      -15.66981         7.04216         6.92093
   C      -17.31102         7.13481         6.39780
   C      -17.49578         6.54750         5.18937
   C      -16.30117         5.99656         4.64404
   C      -16.60763         5.41024         3.37215
   C      -17.93464         5.56792         3.09540
   C      -18.59914         6.29983         4.23115
   O      -19.75830         6.61515         4.34343
   C      -18.59372         5.10790         1.90394
   C      -19.89168         5.26676         1.64133
   H       -4.13807         4.61789         7.37893
   H       -8.57219         5.65345         7.25431
   H       -4.46941         3.15410         4.52113
   H       -7.84815         2.86320         2.41284
   H       -4.92085         1.98108         2.14890
   H       -4.75172         0.59257        -0.37786
   H      -12.24775         0.85785        -3.25994
   H       -9.79299         2.68294         1.30285
   H      -13.57272         3.73169         1.64356
   H      -10.78152         3.81849         2.94325
   H      -10.66022         5.04129         5.25563
   H      -18.03757         7.62116         7.01923
   H      -15.88914         4.92338         2.73796
   H      -17.95082         4.60139         1.19296
   H      -20.54947         5.76664         2.33034
   H      -20.32572         4.89807         0.72778
*
