# ORCA input file
# SCF done       -192.544692297545          0.000334422994
! CAM-B3LYP def2-SVP def2/J RIJCOSX Grid4 TightSCF
%maxcore 5000
%tddft
    Mode sTDDFT
    Ethresh 5.0
    maxcore 5000
end

%pal
  nprocs 6
  end
* xyz 0 1
   C        0.08306         5.01141         2.99236
   C       -0.45270         4.73133         4.19045
   C       -1.45133         3.66462         4.01077
   C       -2.16206         3.07358         5.06350
   N       -2.73018         2.59604         5.93896
   C       -1.52915         3.35641         2.69082
   C       -0.57769         4.19157         1.98072
   C       -0.30610         4.20354         0.64392
   C       -1.01115         3.48910        -0.43473
   C       -0.21524         3.51829        -1.53710
   C        0.97337         4.29639        -1.23130
   C        0.89501         4.74436         0.05613
   C        2.01034         4.53906        -2.14340
   N        2.85357         4.73633        -2.89624
   C       -2.35503         2.96799        -0.39252
   C       -3.40604         3.64081         0.25868
   C       -4.74669         3.12707         0.26493
   N       -5.73950         3.86327         0.82387
   C       -5.44434         4.97327         1.40360
   C       -4.10252         5.45701         1.44729
   N       -3.14113         4.82112         0.87353
   F       -3.81020         6.60206         2.05842
   F       -6.43663         5.68493         1.93090
   C       -5.07411         1.90065        -0.33421
   C       -4.03995         1.23817        -1.01272
   C       -2.70077         1.78244        -1.06373
   N       -1.86995         0.98421        -1.74444
   S       -2.68208        -0.30019        -2.24593
   N       -4.11411         0.05905        -1.63901
   C       -6.41091         1.34562        -0.24474
   C       -7.12117         1.34301         0.96640
   C       -8.46331         0.84123         1.05406
   N       -9.10440         0.84626         2.24965
   C       -8.50156         1.33895         3.27420
   C       -7.15735         1.81662         3.19362
   N       -6.50052         1.78962         2.08667
   F       -6.53454         2.26763         4.27656
   F       -9.15496         1.35250         4.43230
   C       -9.12347         0.30544        -0.06075
   C       -8.40961         0.27745        -1.26655
   C       -7.06270         0.79873        -1.35994
   N       -6.59965         0.74225        -2.61373
   S       -7.71922         0.09093        -3.54851
   N       -8.86298        -0.13347        -2.45670
   C      -10.49119        -0.17530         0.02795
   C      -10.86459        -1.42465        -0.48566
   C      -12.21649        -1.90565        -0.40077
   N      -12.53640        -3.08942        -0.98059
   C      -11.60870        -3.78005        -1.54724
   C      -10.24927        -3.34696        -1.54060
   N       -9.90766        -2.21643        -1.03054
   F       -9.29415        -4.11300        -2.06035
   F      -11.95679        -4.92660        -2.12765
   C      -13.23004        -1.16835         0.24157
   C      -12.85887         0.09655         0.72991
   C      -11.50261         0.58671         0.62913
   N      -11.38644         1.81952         1.13603
   S      -12.80162         2.28116         1.71024
   N      -13.65813         0.98249         1.33661
   C      -14.59549        -1.62592         0.31723
   C      -15.69518        -0.85341         0.10663
   C      -16.86755        -1.71132         0.07573
   C      -18.17583        -1.24839        -0.12526
   N      -19.24370        -0.86391        -0.29384
   C      -16.47780        -3.00729         0.25781
   C      -15.05519        -3.01537         0.49321
   C      -14.35512        -4.08029         0.97983
   C      -14.80654        -5.46828         0.98454
   C      -13.82714        -6.23746         1.48565
   C      -12.71703        -5.36215         1.89357
   C      -13.03708        -4.07844         1.58721
   C      -11.53613        -5.81463         2.49526
   N      -10.56506        -6.19419         2.97544
   H        0.82615         5.75405         2.77789
   H       -0.22226         5.17356         5.14152
   H       -2.12982         2.58391         2.25134
   H       -0.42967         3.08975        -2.49730
   H        1.63810         5.31680         0.57658
   H      -15.71485         0.20641        -0.06016
   H      -17.12188        -3.86322         0.31564
   H      -15.74266        -5.80122         0.58147
   H      -13.81196        -7.30544         1.59683
   H      -12.45785        -3.20454         1.81472
*
