# ORCA input file
# SCF done       -219.154322983334          0.000640017561
! CAM-B3LYP def2-SVP def2/J RIJCOSX Grid4 TightSCF
%maxcore 5000
%tddft
    Mode sTDDFT
    Ethresh 5.0
    maxcore 5000
end

%pal
  nprocs 6
  end
* xyz 0 1
   C       -0.72923        -1.77556         0.69992
   N       -2.03458        -1.48475         0.93428
   C       -3.07096        -2.43185         1.25726
   C       -3.57107        -3.16345         0.01402
   C       -2.29706        -0.10347         0.75700
   O       -3.40007         0.38171         0.91337
   C       -1.01544         0.45019         0.39577
   C       -0.06898        -0.62337         0.37411
   C        1.22732        -0.07244         0.03129
   O        2.31859        -0.57943        -0.10701
   N        0.98087         1.30375        -0.12009
   C        2.03239         2.21006        -0.51293
   C        1.93955         2.58983        -1.98906
   C       -0.34407         1.62862         0.08746
   C       -0.82626         2.95707        -0.01023
   C       -2.13792         3.28042         0.13773
   C       -2.69990         4.58368         0.00124
   C       -4.06675         4.74718         0.36145
   C       -4.69618         6.03102         0.38978
   N       -5.94142         6.15915         0.90330
   C       -6.55754         5.08367         1.31039
   C       -5.97545         3.80617         1.18315
   N       -4.76404         3.65620         0.73049
   C       -3.99068         7.17662        -0.02768
   C       -2.66589         7.00726        -0.49786
   C       -2.00730         5.73867        -0.44523
   N       -0.71404         5.65947        -0.82482
   C       -0.10422         6.74290        -1.21549
   C       -0.79267         7.96304        -1.36636
   N       -2.04765         8.07379        -1.04158
   C       -4.45329         8.52786         0.12757
   N       -5.68398         9.03555        -0.18477
   C       -6.73902         8.36843        -0.90800
   C       -6.31269         8.02371        -2.33175
   C       -5.75676        10.41488         0.08659
   O       -6.74484        11.09082        -0.13930
   C       -4.46610        10.74588         0.64290
   C       -3.68101         9.56860         0.63375
   C       -2.40010         9.87383         1.24036
   O       -1.42165         9.19579         1.47751
   N       -2.48632        11.24444         1.54337
   C       -1.40720        11.93855         2.20482
   C       -1.66054        12.08677         3.70261
   C       -3.70892        11.77716         1.20595
   C       -4.05455        13.13082         1.40346
   C       -5.27564        13.62815         1.05079
   C       -5.61455        14.98581         1.22657
   N       -6.83560        15.51861         0.87984
   C       -7.96932        14.79147         0.35944
   C       -8.70995        14.03366         1.45759
   C       -6.90559        16.89336         1.14343
   O       -7.88618        17.57604         0.91484
   C       -5.60641        17.22166         1.69299
   C       -4.83942        16.03377         1.73281
   C       -3.54126        16.36032         2.27961
   O       -2.55890        15.67618         2.50793
   N       -3.60922        17.73429         2.54300
   C       -2.47548        18.45500         3.07143
   C       -1.73893        19.23949         1.98893
   C       -4.82996        18.26860         2.19370
   C       -5.14329        19.63903         2.35181
   C       -6.34400        20.15495         1.98091
   C       -6.78107        21.50385         2.07169
   S       -8.44974        21.72651         1.58664
   C       -8.38435        23.39534         1.89709
   C       -7.15450        23.79540         2.34516
   C       -6.21434        22.72547         2.45223
   C       -4.84533        23.00426         2.88721
   O       -3.96039        22.16559         2.98078
   C       -4.55170        24.41725         3.22325
   C       -3.26434        24.72476         3.66162
   C       -2.91646        26.01769         3.99518
   C       -3.84446        27.05189         3.90219
   C       -3.45191        28.46374         4.21890
   C       -2.84478        29.13258         2.98296
   C       -5.12502        26.75109         3.46271
   C       -5.48968        25.45192         3.12586
   C       -6.86908        25.19768         2.66890
   O       -7.70538        26.07667         2.56833
   H       -0.35945        -2.78046         0.78905
   H       -3.88791        -1.85752         1.70272
   H       -2.68812        -3.14531         1.99287
   H       -3.97847        -2.45021        -0.69836
   H       -4.35156        -3.86795         0.28781
   H       -2.75912        -3.70795        -0.46312
   H        2.96964         1.67666        -0.32906
   H        2.00336         3.10243         0.11864
   H        1.98581         1.69528        -2.60568
   H        2.77162         3.23664        -2.25407
   H        1.00861         3.11118        -2.19966
   H       -0.11516         3.74106        -0.21682
   H       -2.85618         2.50856         0.38688
   H       -7.54622         5.22167         1.72740
   H       -6.50969         2.90474         1.44843
   H        0.93883         6.64179        -1.48444
   H       -0.32198         8.83000        -1.80864
   H       -7.57788         9.06964        -0.92436
   H       -7.02807         7.46611        -0.36407
   H       -6.01685         8.92298        -2.86750
   H       -7.13991         7.55854        -2.86092
   H       -5.47186         7.33319        -2.32398
   H       -1.26520        12.92005         1.74624
   H       -0.51274        11.33124         2.04057
   H       -2.54486        12.69174         3.88613
   H       -0.80826        12.57179         4.16947
   H       -1.80067        11.10882         4.15734
   H       -3.31906        13.79080         1.84069
   H       -6.01158        12.96767         0.61535
   H       -7.63699        14.10074        -0.41910
   H       -8.63090        15.54123        -0.08338
   H       -8.06749        13.28075         1.90709
   H       -9.57806        13.53718         1.03410
   H       -9.04199        14.72265         2.23089
   H       -1.81044        17.69708         3.49544
   H       -2.80681        19.12498         3.86889
   H       -1.43607        18.57307         1.18462
   H       -0.85115        19.69932         2.41381
   H       -2.37130        20.02270         1.57905
   H       -4.39031        20.28470         2.77294
   H       -7.08514        19.48012         1.56725
   H       -9.23644        24.02841         1.74240
   H       -2.54575        23.92174         3.73414
   H       -1.91357        26.23172         4.33580
   H       -2.71974        28.47186         5.02888
   H       -4.32842        29.02879         4.53986
   H       -1.96196        28.59004         2.65206
   H       -2.55868        30.15654         3.20983
   H       -3.56486        29.14502         2.16806
   H       -5.87475        27.52437         3.37453
*
