# ORCA input file
# SCF done       -165.038353552033          0.000919098571
! CAM-B3LYP def2-SVP def2/J RIJCOSX Grid4 TightSCF
%maxcore 5000
%tddft
    Mode sTDDFT
    Ethresh 5.0
    maxcore 5000
end

%pal
  nprocs 6
  end
* xyz 0 1
   C       -4.48978        -0.85173         2.89401
   N       -4.31215         0.12539         3.82701
   C       -4.56891        -0.00022         5.23882
   C       -6.06475        -0.00341         5.54401
   C       -3.88725         1.33096         3.23446
   O       -3.66134         2.34584         3.88082
   C       -3.80557         1.02629         1.83388
   C       -4.18732        -0.34298         1.66302
   C       -4.09934        -0.65947         0.25162
   O       -4.31568        -1.67565        -0.37281
   N       -3.65996         0.53730        -0.34091
   C       -3.49767         0.64769        -1.76903
   C       -4.68314         1.35426        -2.42354
   C       -3.48597         1.55031         0.58151
   C       -3.04844         2.84917         0.25446
   C       -2.92557         3.81259         1.21653
   C       -2.50404         5.12980         1.02173
   S       -2.03672         5.77946        -0.51960
   C       -1.73770         7.36695         0.12717
   C       -1.93605         7.37668         1.52329
   C       -2.38542         6.12087         2.02133
   C       -2.65538         5.96299         3.38523
   C       -2.44447         7.00082         4.26809
   C       -2.74330         6.83078         5.68717
   C       -2.79205         5.66679         6.32493
   C       -1.92729         8.23881         3.78384
   C       -1.61872         9.35637         4.73322
   C       -1.68543         8.40937         2.44459
   C       -1.38553         8.38418        -0.78020
   C       -1.48044         9.72886        -0.57406
   C       -1.11269        10.68964        -1.53822
   O       -0.52765        10.35802        -2.70885
   C       -0.31562        11.49846        -3.42027
   C       -0.77213        12.58957        -2.69768
   C       -1.27666        12.08240        -1.48802
   C       -1.83179        12.80023        -0.42349
   N       -2.28103        13.38399         0.45711
   C        0.31742        11.40078        -4.68174
   C        0.50036        12.44972        -5.52972
   C        1.17031        12.37834        -6.76276
   C        1.34341        13.39899        -7.71470
   C        2.11306        12.99350        -8.84620
   C        2.39842        13.94126        -9.84671
   C        1.90460        15.21262        -9.74310
   C        1.11364        15.59647        -8.64738
   C        0.84160        14.71137        -7.64236
   C        2.53907        11.64799        -8.76988
   S        1.96697        10.93000        -7.29215
   C        3.26874        10.88607        -9.70393
   S        3.35349        11.36154       -11.37661
   C        4.28990         9.98321       -11.83760
   C        4.54630         9.17616       -10.72668
   C        3.97153         9.67617        -9.51805
   C        4.19906         8.97329        -8.32626
   C        4.93904         7.81230        -8.30956
   C        5.15524         7.10354        -7.05070
   C        5.22323         7.67830        -5.85638
   C        5.48404         7.29814        -9.52441
   C        6.29611         6.03872        -9.51648
   C        5.29063         7.97935       -10.69330
   C        4.71069         9.78214       -13.18700
   C        4.44552        10.60409       -14.20480
   H       -4.80956        -1.83669         3.17837
   H       -4.09332         0.86161         5.71544
   H       -4.10284        -0.91850         5.61010
   H       -6.52126         0.91473         5.18213
   H       -6.22343        -0.07301         6.61673
   H       -6.55314        -0.84782         5.06248
   H       -3.42857        -0.37732        -2.14486
   H       -2.56262         1.16984        -1.99282
   H       -5.59631         0.79417        -2.23701
   H       -4.52775         1.41973        -3.49716
   H       -4.80566         2.35888        -2.02417
   H       -2.80685         3.08265        -0.77299
   H       -3.17881         3.54635         2.23331
   H       -3.03686         5.02107         3.74376
   H       -2.93163         7.73964         6.24196
   H       -2.59268         4.72726         5.83855
   H       -3.02952         5.61613         7.37404
   H       -0.97257         9.01090         5.53883
   H       -2.53468         9.74690         5.17677
   H       -1.12167        10.17182         4.21355
   H       -1.26442         9.34070         2.10164
   H       -1.06440         8.05226        -1.76004
   H       -1.90282        10.13206         0.33274
   H       -0.73889        13.61877        -2.98970
   H        0.66630        10.41594        -4.96059
   H        0.10995        13.41912        -5.25451
   H        3.01664        13.67340       -10.68740
   H        2.12643        15.93752       -10.51163
   H        0.72897        16.60415        -8.60071
   H        0.24585        15.01025        -6.79384
   H        3.78678         9.33880        -7.40126
   H        5.27519         6.03133        -7.12495
   H        5.14801         8.74475        -5.72484
   H        5.37490         7.09976        -4.96122
   H        5.67830         5.18361        -9.24180
   H        7.11129         6.11147        -8.79798
   H        6.71688         5.85102       -10.50119
   H        5.72010         7.60328       -11.60992
   H        5.28702         8.88345       -13.36137
   H        3.87467        11.50718       -14.06524
   H        4.79179        10.39649       -15.20111
*
