# ORCA input file
# SCF done       -151.715881333733          0.000517730413
! CAM-B3LYP def2-SVP def2/J RIJCOSX Grid4 TightSCF
%maxcore 5000
%tddft
    Mode sTDDFT
    Ethresh 5.0
    maxcore 5000
end

%pal
  nprocs 6
  end
* xyz 0 1
   C        3.91720        -0.46336        -5.23620
   S        2.71407        -1.50879        -4.52760
   C        2.81179        -0.57596        -3.10101
   C        3.72706         0.44002        -3.25282
   N        4.33299         0.47215        -4.47579
   C        4.08103         1.42026        -2.27112
   S        5.26461         2.63392        -2.65878
   C        3.63371         1.59381        -0.98286
   C        2.68102         0.95127        -0.06902
   O        1.95989        -0.00660        -0.22605
   N        2.76462         1.68583         1.10546
   C        1.95697         1.40362         2.27268
   C        0.61570         2.12531         2.20549
   C        3.66590         2.74109         1.04581
   O        3.88398         3.49521         1.96719
   C        4.23502         2.68491        -0.30666
   C        5.15917         3.37437        -1.07103
   C        5.97442         4.49895        -0.78638
   C        5.99087         5.12517         0.41932
   C        6.81168         6.24658         0.68918
   N        6.85389         6.87104         1.91364
   C        6.15007         6.47077         3.10865
   C        6.82916         5.29071         3.79841
   C        7.74346         7.96268         1.92109
   O        7.94566         8.66480         2.88918
   C        8.26842         7.99303         0.57312
   C        7.68344         6.93427        -0.15706
   C        8.20905         6.99466        -1.50159
   O        8.00786         6.30714        -2.48404
   N        9.08009         8.10271        -1.49744
   C        9.82300         8.43185        -2.69045
   C       11.26654         7.94038        -2.61968
   C        9.13012         8.70492        -0.25915
   C        9.85790         9.83381         0.18937
   C       10.71545        10.64960        -0.47463
   C       11.36165        11.75022         0.13651
   S       11.16890        12.20221         1.82016
   C       12.23414        12.63382        -0.46243
   C       12.79909        12.81398        -1.80375
   O       12.63316        12.17169        -2.81322
   N       13.62327        13.92774        -1.68829
   C       14.36134        14.48826        -2.79956
   C       13.55466        15.57019        -3.50927
   C       13.64227        14.48457        -0.41410
   O       14.29711        15.45299        -0.10753
   C       12.73959        13.64248         0.38626
   C       12.26610        13.56449         1.68242
   C       12.51383        14.35616         2.83391
   C       13.33914        15.42787         2.86152
   C       13.55248        16.18428         4.04682
   S       14.63797        17.57797         4.03228
   C       14.28980        17.80158         5.69323
   C       13.41390        16.84871         6.13112
   N       13.01688        15.96310         5.20775
   H        4.26213        -0.62007        -6.23858
   H        2.21837        -0.79815        -2.23685
   H        2.52374         1.73215         3.14705
   H        1.80477         0.32240         2.31195
   H        0.76906         3.20091         2.15709
   H        0.02942         1.89465         3.09025
   H        0.06207         1.80628         1.32547
   H        6.60827         4.85132        -1.58985
   H        5.35524         4.76412         1.21394
   H        5.11499         6.22301         2.86183
   H        6.16249         7.34124         3.77060
   H        6.82954         4.41494         3.15405
   H        6.29590         5.04753         4.71282
   H        7.85659         5.54431         4.04887
   H        9.77709         9.50854        -2.86842
   H        9.30751         7.92179        -3.50999
   H       11.77849         8.34721        -1.75083
   H       11.80143         8.24681        -3.51405
   H       11.28473         6.85513        -2.55505
   H        9.66960        10.05124         1.23573
   H       10.96834        10.51921        -1.51584
   H       14.58771        13.66850        -3.48541
   H       15.28836        14.90726        -2.40048
   H       12.62902        15.15386        -3.90027
   H       14.13162        15.97788        -4.33443
   H       13.31708        16.37471        -2.81696
   H       12.00142        14.06835         3.74145
   H       13.86845        15.74598         1.97473
   H       14.73651        18.60194         6.24712
   H       13.03515        16.76544         7.13389
*
