# ORCA input file
# SCF done       -213.889059615037          0.000686898417
! CAM-B3LYP def2-SVP def2/J RIJCOSX Grid4 TightSCF
%maxcore 5000
%tddft
    Mode sTDDFT
    Ethresh 5.0
    maxcore 5000
end

%pal
  nprocs 6
  end
* xyz 0 1
   C        4.10941        -2.03013         1.14040
   O        3.68510        -3.07292         1.58221
   C        5.24059        -1.24648         1.68220
   C        5.54828        -0.18511         0.81296
   C        6.60080         0.66465         1.11395
   C        7.32253         0.44386         2.28118
   C        7.00629        -0.61124         3.14063
   C        5.95885        -1.47126         2.83831
  Br        7.99792        -0.88604         4.72503
  Br        8.75660         1.60490         2.69077
   C        4.61188        -0.20256        -0.30712
   C        4.53256         0.73749        -1.29748
   C        5.40946         1.83816        -1.41393
   N        6.09543         2.74651        -1.55693
   C        3.55233         0.75934        -2.31448
   N        2.77820         0.85948        -3.15548
   C        3.72568        -1.33853        -0.11970
   C        2.81521        -1.81476        -1.00883
   C        1.83381        -2.81573        -0.71180
   C        1.45090        -3.76209        -1.65671
   F        2.04993        -3.74825        -2.85510
   C        0.52060        -4.77888        -1.40973
   F        0.30678        -5.64805        -2.40637
   C       -0.14916        -4.91055        -0.19414
   C        0.17171        -3.91044         0.77031
   C        1.13738        -2.87815         0.52257
   N        1.22651        -2.02346         1.53712
   S        0.23462        -2.49997         2.70476
   N       -0.38254        -3.79087         1.97465
   C       -1.09824        -5.91122         0.18196
   C       -1.58681        -6.91004        -0.59720
   C       -2.52236        -7.91907        -0.24845
   N       -3.08677        -8.23600         0.96693
   C       -2.91046        -7.60448         2.25325
   C       -3.79661        -6.37058         2.41028
   C       -3.96585        -9.33996         0.86537
   O       -4.55886        -9.81161         1.81072
   C       -3.92278        -9.70334        -0.53263
   C       -3.02670        -8.82942        -1.18028
   C       -2.97434        -9.20947        -2.57645
   O       -2.36894        -8.75910        -3.52161
   N       -3.84311       -10.32847        -2.66818
   C       -4.12515       -10.90741        -3.96056
   C       -5.54102       -10.58600        -4.43063
   C       -4.41858       -10.61846        -1.45932
   C       -5.35615       -11.63278        -1.11043
   C       -5.69759       -12.74310        -1.79542
   C       -6.67106       -13.68069        -1.29301
   C       -6.52840       -15.07713        -1.41533
   C       -5.40638       -15.69167        -2.14359
   O       -4.46363       -15.14839        -2.64580
   S       -5.64526       -17.46160        -2.20053
   C       -7.18646       -17.38285        -1.27603
   O       -7.87516       -18.35238        -1.13400
   C       -7.43159       -15.99196        -0.86018
   C       -8.54706       -15.57140        -0.09686
   C       -8.75575       -14.18116        -0.11089
   C       -7.86354       -13.27570        -0.67462
   C       -8.48854       -11.93470        -0.58424
   O       -8.13790       -10.88425        -1.02826
   O       -9.67392       -12.08782         0.09241
   C       -9.89647       -13.40580         0.41809
   O      -10.86788       -13.76495         1.01091
   C       -9.43652       -16.43071         0.62545
   C       -9.04979       -17.56621         1.24330
   C       -9.92089       -18.44996         1.93317
   S      -11.62131       -18.09784         2.10225
   C      -11.87248       -19.56709         2.93747
   C      -10.73286       -20.30728         3.07948
   C       -9.60784       -19.67206         2.50540
   C       -8.23232       -20.28269         2.56682
   C       -8.34218       -21.78710         2.87946
   C       -9.23867       -22.01768         4.08947
   C      -10.67757       -21.64939         3.74008
   N       -7.47760       -20.04353         1.36330
   C       -6.11173       -20.04326         1.34112
   C       -5.36953       -20.11593         0.23692
   H        6.87840         1.48471         0.47173
   H        5.70898        -2.29356         3.49065
   H        2.82118        -1.45276        -2.02974
   H       -1.43105        -5.78614         1.19979
   H       -1.27566        -6.99089        -1.62990
   H       -1.85552        -7.36877         2.40784
   H       -3.21141        -8.35361         2.99264
   H       -3.60108        -5.63812         1.63072
   H       -3.61556        -5.90959         3.37719
   H       -4.84232        -6.66242         2.35351
   H       -3.94685       -11.98524        -3.93441
   H       -3.39887       -10.45787        -4.64499
   H       -6.28369       -10.94266        -3.72093
   H       -5.72127       -11.05345        -5.39462
   H       -5.66015        -9.51079        -4.53912
   H       -5.77910       -11.47270        -0.12657
   H       -5.19815       -13.02235        -2.70927
   H      -10.45459       -16.07981         0.73066
   H       -8.00916       -17.85501         1.23863
   H      -12.85653       -19.81855         3.28179
   H       -7.68365       -19.80136         3.39168
   H       -7.34078       -22.18190         3.05940
   H       -8.75685       -22.30210         2.00988
   H       -9.19081       -23.06229         4.39974
   H       -8.89124       -21.40251         4.92240
   H      -11.30574       -21.65091         4.63290
   H      -11.08679       -22.39603         3.05208
   H       -7.94113       -20.22311         0.48433
   H       -5.65262       -19.92739         2.31521
   H       -5.81680       -20.22689        -0.73500
   H       -4.29949       -20.05254         0.28127
*
