# ORCA input file
# SCF done       -175.113709957681          0.000639936638
! CAM-B3LYP def2-SVP def2/J RIJCOSX Grid4 TightSCF
%maxcore 5000
%tddft
    Mode sTDDFT
    Ethresh 5.0
    maxcore 5000
end

%pal
  nprocs 6
  end
* xyz 0 1
   C        2.86516         2.88627         2.19040
   C        2.49696         4.09608         2.69312
   S        3.61085         4.63820         3.89395
   C        4.59912         3.20758         3.71721
  Cl        5.99940         2.98142         4.64202
   C        4.06832         2.37497         2.77675
   C        4.39923         1.07305         2.19140
   O        5.35759         0.37406         2.42675
   C        3.31619         0.82500         1.18448
   C        2.37589         1.93995         1.20948
   C        1.21858         2.08382         0.49392
   C        0.39916         3.22313         0.64601
   N       -0.27641         4.14318         0.75834
   C        0.70631         1.15660        -0.43574
   N        0.23689         0.43895        -1.19859
   C        3.31041        -0.20838         0.30765
   C        4.21254        -1.32781         0.33532
   C        4.52608        -2.04771         1.49984
   N        5.36271        -3.05484         1.50206
   C        5.90348        -3.42802         0.33945
   N        5.62767        -2.84764        -0.82956
   C        4.81636        -1.82375        -0.83514
   C        6.81174        -4.54718         0.29202
   N        7.40638        -5.13817         1.37125
   C        7.25564        -4.79837         2.76664
   C        6.04168        -5.49092         3.37744
   C        8.22086        -6.21910         0.98264
   O        8.86913        -6.88687         1.76181
   C        8.08698        -6.27079        -0.45716
   C        7.22604        -5.21791        -0.85282
   C        7.07288        -5.28077        -2.29724
   O        6.44988        -4.62332        -3.09279
   N        7.86910        -6.39301        -2.67204
   C        8.00591        -6.76641        -4.05897
   C        9.35204        -6.33910        -4.63815
   C        8.46776        -6.98719        -1.59252
   C        9.28643        -8.14269        -1.67082
   C        9.86026        -8.70922        -0.57642
   C       10.65139        -9.88316        -0.64133
   O       10.92854       -10.47777        -1.81528
   C       11.66360       -11.59087        -1.57475
   C       11.88638       -11.70882        -0.20845
   C       11.23752       -10.62593         0.38815
   C       11.18299       -10.31326         1.84467
   F       11.75244        -9.13022         2.13005
   F        9.93103       -10.26393         2.31720
   F       11.83421       -11.23344         2.57102
   C       12.15292       -12.40772        -2.62155
   C       11.88330       -12.34135        -3.95348
   C       12.83760       -12.97577        -4.92009
   O       13.69100       -13.78690        -4.65894
   C       12.52551       -12.33454        -6.20378
   C       13.01979       -12.34334        -7.47417
   S       12.09035       -11.27600        -8.50088
   C       11.03724       -10.83983        -7.20402
   C       11.38869       -11.47213        -6.05346
   C       10.89352       -11.58497        -4.69494
   C        9.63296       -11.23286        -4.29244
   C        8.79155       -10.44845        -5.10296
   N        8.11545        -9.74737        -5.71100
   C        9.03190       -11.66338        -3.09200
   N        8.48057       -12.04582        -2.16136
  Cl       14.33256       -13.22520        -8.07917
   H        1.65352         4.70861         2.44320
   H        2.59830        -0.20597        -0.50872
   H        4.04834        -1.82545         2.44398
   H        4.65057        -1.35336        -1.79535
   H        7.16194        -3.71614         2.86232
   H        8.16637        -5.14226         3.26486
   H        5.13311        -5.15465         2.88539
   H        5.97837        -5.24995         4.43436
   H        6.13209        -6.56900         3.26924
   H        7.20190        -6.24760        -4.58795
   H        7.85890        -7.84337        -4.17532
   H        9.45972        -5.25904        -4.57587
   H        9.40549        -6.63647        -5.68144
   H       10.17769        -6.80025        -4.10005
   H        9.43813        -8.58936        -2.64337
   H        9.71057        -8.27946         0.40528
   H       12.43535       -12.48331         0.28712
   H       12.91356       -13.12185        -2.32863
   H       10.24120       -10.14401        -7.38154
*
