# ORCA input file
# SCF done       -206.011199896662          0.000829497522
! CAM-B3LYP def2-SVP def2/J RIJCOSX Grid4 TightSCF
%maxcore 5000
%tddft
    Mode sTDDFT
    Ethresh 5.0
    maxcore 5000
end

%pal
  nprocs 6
  end
* xyz 0 1
   C        0.21536         1.63339        -1.84181
   C       -0.63887         2.62244        -2.22137
   S       -1.29249         2.31440        -3.78818
   C       -0.40046         0.81802        -3.93883
  Cl       -0.51796        -0.14775        -5.32345
   C        0.35346         0.60128        -2.82411
   C        1.28580        -0.42609        -2.35014
   O        1.57286        -1.46485        -2.89530
   C        1.72701         0.05730        -1.00043
   C        1.05437         1.31519        -0.70472
   C        1.19304         2.11131         0.40201
   C        0.47706         3.32127         0.52707
   N       -0.09906         4.30563         0.64951
   C        2.02554         1.86012         1.51068
   N        2.68253         1.72226         2.44228
   C        2.51159        -0.62861        -0.12169
   C        3.30313        -1.78399        -0.35632
   C        3.86094        -2.25724        -1.52183
   C        4.61843        -3.43447        -1.23372
   C        4.49747        -3.65720         0.21790
   C        3.73607        -2.65816         0.73117
   C        5.06554        -4.70414         0.95467
   N        5.51484        -5.55313         1.58323
   C        5.30107        -4.21369        -2.13673
   C        5.98337        -5.43902        -1.89446
   C        6.47207        -5.93061        -3.08929
   C        6.11810        -4.98039        -4.13979
   C        5.43027        -3.95131        -3.58756
   C        4.98384        -2.82645        -4.29380
   N        4.67058        -1.91337        -4.91545
   C        7.18567        -7.13550        -3.29992
   C        7.66138        -8.00896        -2.33847
   C        8.32759        -9.08943        -2.97884
   C        8.20436        -8.84603        -4.43084
   C        7.53544        -7.67881        -4.60627
   C        8.62955        -9.68245        -5.47113
   N        8.91868       -10.35158        -6.35816
   C        8.98533       -10.14431        -2.38784
   C        9.70886       -11.18201        -3.03997
   C       10.19042       -12.06139        -2.09501
   C        9.77258       -11.57651        -0.77950
   C        9.08193       -10.42047        -0.94014
   C        8.56502        -9.64379         0.10370
   N        8.15600        -9.03160         0.98458
   C       10.97059       -13.23530        -2.27988
   C       12.03725       -13.47140        -3.13648
   N       12.65678       -12.59190        -4.04991
   O       13.65761       -13.00177        -4.61128
   O       12.18963       -11.47931        -4.21137
   C       12.60161       -14.76183        -2.84560
   C       11.92776       -15.31465        -1.80359
   C       10.87202       -14.42578        -1.41644
   C        9.83670       -14.69901        -0.54368
   C        8.50188       -14.20441        -0.63496
   C        7.72867       -14.87767         0.26250
   C        8.54362       -15.79145         1.00570
   N        7.96416       -16.57664         2.01743
   O        6.83661       -16.28123         2.37044
   O        8.59027       -17.51810         2.48410
   C        9.86915       -15.68672         0.55964
   C       11.10757       -16.11185         1.07189
   C       11.35967       -17.06504         2.02514
   C       12.67147       -17.36257         2.43593
   N       12.97709       -18.33355         3.35610
   C       12.03764       -19.20380         4.02701
   C       11.58785       -20.35258         3.12931
   C       14.35929       -18.45355         3.56682
   O       14.85933       -19.24407         4.33712
   C       14.94234       -17.44893         2.69363
   C       13.88931       -16.79264         2.02285
   C       14.47347       -15.78994         1.15824
   O       13.98301       -14.97748         0.39936
   N       15.86311       -15.92578         1.35448
   C       16.79433       -15.05084         0.68122
   C       17.27285       -13.92360         1.59226
   C       16.15558       -16.89937         2.26842
   C       17.48817       -17.25317         2.65364
   C       17.75367       -18.19554         3.56433
   H       -0.93391         3.50782        -1.69411
   H        2.54387        -0.27216         0.90192
   H        3.76653        -1.82403        -2.49610
   H        3.46536        -2.52421         1.76247
   H        6.07019        -5.90928        -0.93488
   H        6.38114        -5.07775        -5.17639
   H        7.57370        -7.88642        -1.27696
   H        7.28299        -7.23464        -5.55072
   H        9.83217       -11.26503        -4.10053
   H       10.03843       -12.03734         0.15343
   H       13.42720       -15.17918        -3.38981
   H       12.07236       -16.30207        -1.41241
   H        8.15017       -13.51563        -1.37785
   H        6.66991       -14.77948         0.41331
   H       11.96220       -15.59748         0.65334
   H       10.54713       -17.62365         2.46233
   H       11.17765       -18.62064         4.36387
   H       12.56358       -19.60154         4.89905
   H       11.06254       -19.98007         2.25345
   H       10.91695       -21.00262         3.68280
   H       12.44745       -20.93415         2.80443
   H       16.25234       -14.62881        -0.16964
   H       17.63817       -15.63529         0.30576
   H       16.42651       -13.32549         1.92084
   H       17.95965       -13.28148         1.04844
   H       17.78069       -14.31708         2.47002
   H       18.29441       -16.72161         2.16774
   H       16.96855       -18.73819         4.06496
   H       18.76775       -18.44127         3.82810
*
