# ORCA input file
# SCF done       -201.790928527883          0.000893365160
! CAM-B3LYP def2-SVP def2/J RIJCOSX Grid4 TightSCF
%maxcore 5000
%tddft
    Mode sTDDFT
    Ethresh 5.0
    maxcore 5000
end

%pal
  nprocs 6
  end
* xyz 0 1
   C        5.22940         4.54986         0.61921
   C        5.03315         5.89212         0.72880
   S        6.53428         6.74050         0.77375
   C        7.45094         5.25592         0.65259
  Cl        9.14362         5.26408         0.62696
   C        6.61406         4.18412         0.57357
   C        6.74209         2.72625         0.47722
   O        7.74467         2.05945         0.57734
   C        5.33289         2.22942         0.37532
   C        4.41852         3.35325         0.52511
   C        3.05015         3.33369         0.52954
   C        2.29875         4.52145         0.65866
   N        1.67197         5.47596         0.76832
   C        2.24157         2.18551         0.41147
   N        1.52288         1.29522         0.31626
   C        4.98973         0.92235         0.26865
   C        5.88466        -0.13992        -0.09462
   C        5.74458        -1.41778         0.44619
   O        4.79641        -1.54240         1.37812
   C        4.79187        -2.59362         2.33238
   C        6.59707        -2.51061         0.02705
   O        6.12354        -3.72082         0.37299
   C        6.53237        -4.90335        -0.26947
   C        7.74130        -2.29452        -0.74546
   C        7.83763        -1.01837        -1.36671
   C        6.89457         0.02881        -1.07442
   N        7.19110         1.05066        -1.84725
   O        8.25625         0.68714        -2.55473
   N        8.66582        -0.55152        -2.27504
   C        8.83724        -3.22935        -0.71907
   N        9.71101        -3.57133        -1.70768
   C        9.65762        -3.23640        -3.11417
   C       10.82849        -2.35025        -3.52395
   C       10.70572        -4.46845        -1.23357
   O       11.55735        -4.96001        -1.93900
   C       10.40141        -4.62900         0.17046
   C        9.23983        -3.87888         0.44881
   C        8.95240        -4.01276         1.85882
   O        8.06662        -3.55474         2.55358
   N        9.96498        -4.86375         2.34331
   C        9.97992        -5.22226         3.74204
   C        9.26331        -6.54670         3.99673
   C       10.83665        -5.24679         1.34525
   C       11.96733        -6.09349         1.37857
   C       12.43258        -6.89811         2.37496
   C       13.56378        -7.73644         2.24113
   C       13.99369        -8.65223         3.18157
   C       15.12856        -9.34526         2.68236
   C       15.40588        -8.76356         1.35168
   C       14.46945        -7.81650         1.09793
   C       16.46046        -9.09852         0.49323
   N       17.31750        -9.34058        -0.23176
   C       15.80484       -10.38734         3.27463
   C       16.87295       -11.15554         2.72238
   C       17.16267       -12.19942         3.57131
   C       16.31250       -12.07032         4.74594
   C       15.51227       -10.98272         4.58714
   C       14.59032       -10.52084         5.53234
   N       13.84662       -10.15948         6.32997
   C       18.14880       -13.20182         3.36306
   C       18.17165       -14.46325         3.86781
   C       19.45710       -15.23199         3.89845
   O       20.48141       -14.94066         3.33198
   C       19.18388       -16.35541         4.80405
   C       19.88020       -17.38852         5.35657
   S       18.83684       -18.35676         6.37243
   C       17.46949       -17.36095         6.02820
   C       17.80242       -16.34319         5.19084
   C       17.13537       -15.24759         4.51350
   C       15.77977       -15.14126         4.34430
   C       14.89042       -16.01419         5.00485
   N       14.15831       -16.70740         5.55190
   C       15.14979       -14.25700         3.44553
   N       14.58582       -13.61395         2.68002
  Cl       21.51696       -17.77319         5.15420
   H        4.11588         6.44367         0.78692
   H        3.97096         0.61547         0.46805
   H        4.28354        -3.47672         1.94201
   H        4.23137        -2.19793         3.17920
   H        5.80277        -2.85735         2.64520
   H        5.66090        -5.55979        -0.25292
   H        7.35321        -5.38707         0.26679
   H        6.83703        -4.72054        -1.30317
   H        8.71047        -2.73944        -3.32026
   H        9.70587        -4.17776        -3.67270
   H       10.80118        -1.41610        -2.97208
   H       10.76015        -2.13242        -4.58540
   H       11.76645        -2.86294        -3.33087
   H        9.44688        -4.42198         4.26459
   H       11.01131        -5.24423         4.09948
   H        8.21204        -6.45164         3.73544
   H        9.33575        -6.80822         5.04865
   H        9.69383        -7.35105         3.40397
   H       12.48530        -6.10486         0.42806
   H       11.92674        -6.96667         3.32582
   H       13.53231        -8.83870         4.13156
   H       14.40717        -7.21670         0.20948
   H       17.32173       -10.98543         1.76351
   H       16.36114       -12.69816         5.61705
   H       19.01586       -12.91395         2.77675
   H       16.52247       -17.59215         6.47426
*
