# ORCA input file
# SCF done       -176.522120378663          0.000828991144
! CAM-B3LYP def2-SVP def2/J RIJCOSX Grid4 TightSCF
%maxcore 5000
%tddft
    Mode sTDDFT
    Ethresh 5.0
    maxcore 5000
end

%pal
  nprocs 6
  end
* xyz 0 1
   C       -2.61756        -4.17662        -0.58807
   C       -3.94416        -3.98183        -0.35755
   S       -4.34976        -4.32931         1.28360
   C       -2.69661        -4.74738         1.67084
  Cl       -2.25248        -5.23554         3.23084
   C       -1.90093        -4.61344         0.57296
   C       -0.48211        -4.80118         0.24678
   O        0.40110        -5.18749         0.97655
   C       -0.38473        -4.47131        -1.20987
   C       -1.69534        -4.06544        -1.69915
   C       -2.02660        -3.61056        -2.94754
   C       -3.34885        -3.23399        -3.26399
   N       -4.42000        -2.92739        -3.53802
   C       -1.13359        -3.44654        -4.02471
   N       -0.45533        -3.28394        -4.93682
   C        0.72132        -4.67393        -1.96893
   C        2.02821        -5.01211        -1.47806
   C        2.80951        -6.01015        -2.08298
   N        4.02475        -6.29191        -1.68962
   C        4.53092        -5.60503        -0.66767
   N        3.86444        -4.65618        -0.00222
   C        2.65585        -4.35681        -0.40421
   C        5.87179        -5.92934        -0.22059
   C        6.93295        -6.45869        -1.03542
   C        7.05381        -6.58704        -2.42520
   O        6.13339        -6.15616        -3.34363
   C        6.00637        -4.74794        -3.45614
   C        7.24800        -4.09928        -4.05924
   C        8.20107        -7.20965        -2.89482
   C        9.28412        -7.66541        -2.09276
   C        9.20805        -7.42631        -0.70651
   C        8.03308        -6.83930        -0.23986
   S        7.77410        -6.48000         1.44882
   C        6.21765        -5.86201         1.09812
   O       10.11141        -7.68277         0.26168
   C       11.42565        -8.12532        -0.02730
   C       12.22335        -8.06153         1.26463
   C       10.27929        -8.27442        -2.90599
   C        9.98220        -8.28374        -4.24142
   S        8.44536        -7.51863        -4.58367
   C       10.77932        -8.83910        -5.28584
   C       10.43019        -8.85322        -6.58464
   C       11.26551        -9.40905        -7.62295
   N       10.83854        -9.25689        -8.88398
   C       11.60309        -9.73316        -9.84409
   C       12.81727       -10.35833        -9.59209
   C       13.18130       -10.48279        -8.24649
   N       12.39452       -10.01901        -7.27775
   C       14.42711       -11.10656        -7.84449
   C       14.70982       -11.31363        -6.54303
   C       15.91146       -11.89458        -6.06054
   C       16.30102       -11.94587        -4.75928
   C       17.37114       -12.89944        -4.32923
   O       18.15721       -13.46996        -5.04476
   C       17.18860       -13.01215        -2.87536
   C       17.72187       -13.73745        -1.85249
   S       16.95800       -13.31401        -0.33706
   C       15.93255       -12.15653        -1.10397
   C       16.16368       -12.10613        -2.44278
   C       15.70244       -11.33904        -3.58413
   C       14.99199       -10.17077        -3.50431
   C       14.43160        -9.73396        -2.28808
   N       13.92534        -9.37519        -1.32215
   C       14.83275        -9.23419        -4.54897
   N       14.73083        -8.39226        -5.32157
  Cl       18.95203       -14.89901        -1.92326
   H       -4.71298        -3.66345        -1.03318
   H        0.63576        -4.60666        -3.04700
   H        2.41714        -6.61920        -2.88719
   H        2.17530        -3.53175         0.10326
   H        5.79087        -4.29666        -2.47799
   H        5.14286        -4.60317        -4.10957
   H        8.10227        -4.22557        -3.39658
   H        7.07205        -3.03725        -4.20523
   H        7.47969        -4.55796        -5.01716
   H        5.58798        -5.50869         1.89126
   H       11.88500        -7.47995        -0.78449
   H       11.40114        -9.15706        -0.39740
   H       11.76121        -8.69131         2.01963
   H       12.25464        -7.04089         1.63564
   H       13.23382        -8.40729         1.07249
   H       11.18905        -8.71161        -2.53882
   H       11.72878        -9.26752        -4.99429
   H        9.49864        -8.42059        -6.91914
   H       11.23263        -9.60140       -10.85331
   H       13.44299       -10.73270       -10.38561
   H       15.12914       -11.36493        -8.62509
   H       13.94865       -11.02614        -5.83163
   H       16.55117       -12.40572        -6.77164
   H       15.22824       -11.60372        -0.51446
*
