# ORCA input file
# SCF done       -187.651013007760          0.000632833320
! CAM-B3LYP def2-SVP def2/J RIJCOSX Grid4 TightSCF
%maxcore 5000
%tddft
    Mode sTDDFT
    Ethresh 5.0
    maxcore 5000
end

%pal
  nprocs 6
  end
* xyz 0 1
   C       -9.69869         2.40770         4.04683
   N       -9.67564         3.76392         4.13866
   C      -10.59655         4.57380         4.89480
   C      -11.94265         4.70300         4.18613
   C       -8.65818         4.32172         3.32414
   O       -8.44530         5.51514         3.24433
   C       -8.03746         3.17063         2.72067
   C       -8.71063         2.00150         3.19400
   C       -8.07670         0.85703         2.57786
   O       -8.27877        -0.33395         2.66421
   N       -7.06832         1.41211         1.75521
   C       -6.16719         0.52868         1.05705
   C       -4.79068         0.47607         1.71593
   C       -7.03682         2.78978         1.83909
   C       -6.20148         3.72932         1.17722
   C       -5.28546         3.54788         0.19606
   C       -4.53140         4.60527        -0.37688
   S       -4.65616         6.26069         0.16497
   C       -3.47264         6.79634        -0.98749
   C       -3.01450         5.71791        -1.75278
   C       -3.61415         4.49733        -1.39887
   C       -2.04409         5.78821        -2.76329
   N       -1.24962         5.79098        -3.59336
   C       -3.10982         8.16391        -1.01649
   C       -2.24651         8.72371        -1.90213
   C       -1.85628        10.08250        -1.89668
   S       -2.47379        11.20813        -0.72319
   C       -0.95294        10.70309        -2.75391
   C       -0.25591         9.96420        -3.85302
   C        0.97356         9.19843        -3.33784
   N        1.96147        10.12799        -2.81430
   C       -0.74383        12.06476        -2.45604
   C        0.22562        12.91224        -3.21890
   C       -0.45295        13.69548        -4.35432
   N       -0.95157        12.77734        -5.36539
   C       -1.51005        12.50800        -1.38202
   C       -1.63446        13.75332        -0.70711
   C       -1.12349        14.96074        -1.04994
   C       -1.28269        16.14768        -0.28497
   S       -0.52836        17.61265        -0.90775
   C       -1.09837        18.50408         0.45096
   C       -1.84374        17.68275         1.33236
   C       -1.94253        16.35588         0.91240
   N       -2.28295        18.42291         2.39489
   C       -3.04461        17.93848         3.51235
   C       -1.81885        19.70175         2.21953
   C       -1.07855        19.77808         1.00644
   S       -0.47406        21.35920         0.73364
   C       -1.21520        21.91902         2.24880
   C       -1.89089        20.90052         2.91017
   C       -0.99376        23.26749         2.56560
   C       -1.43197        24.05187         3.60501
   C       -1.04001        25.44188         3.76768
   C       -0.07697        26.12643         3.06859
   C        0.25264        27.47837         3.29955
   N        0.57512        28.57334         3.42827
   C        0.75236        25.61383         2.04931
   N        1.48315        25.29416         1.22193
   C       -1.81732        26.00316         4.86806
   C       -2.62387        24.96946         5.41814
   C       -2.39638        23.71824         4.67430
   O       -2.92829        22.65125         4.92237
   C       -3.46034        25.18685         6.47419
   C       -3.53283        26.47947         7.04006
   C       -2.73255        27.52252         6.49271
   C       -1.87443        27.26442         5.39851
   C       -2.81248        28.80930         7.06251
   C       -3.64216        29.05576         8.12240
   C       -4.43028        28.02769         8.66034
   C       -4.37656        26.76691         8.13067
   H      -10.41340         1.82800         4.60144
   H      -10.13250         5.55880         4.99475
   H      -10.72904         4.13521         5.88838
   H      -11.80654         5.15970         3.20892
   H      -12.61148         5.32665         4.77259
   H      -12.40183         3.72579         4.05285
   H       -6.09820         0.81785         0.00491
   H       -6.63227        -0.46098         1.11007
   H       -4.33026         1.46103         1.74769
   H       -4.14211        -0.19788         1.16263
   H       -4.88531         0.10770         2.73449
   H       -6.37589         4.74227         1.52338
   H       -5.07906         2.57509        -0.22309
   H       -3.37508         3.56626        -1.88293
   H       -3.56775         8.78930        -0.26028
   H       -1.80240         8.10563        -2.66745
   H        0.06116        10.66738        -4.62125
   H       -0.93778         9.24542        -4.30911
   H        1.42575         8.66741        -4.17839
   H        0.64895         8.44771        -2.59794
   H        1.63214        10.53698        -1.94540
   H        2.83205         9.64722        -2.61931
   H        0.99190        12.27007        -3.65151
   H        0.71734        13.60990        -2.54083
   H        0.29484        14.33679        -4.82830
   H       -1.24467        14.34131        -3.93833
   H       -1.74600        12.25833        -5.00508
   H       -1.26169        13.28629        -6.18519
   H       -2.23345        13.69792         0.19318
   H       -0.55446        15.08528        -1.95640
   H       -2.46057        15.58161         1.44655
   H       -3.85267        17.29578         3.16017
   H       -3.46944        18.78567         4.04664
   H       -2.41306        17.36672         4.19843
   H       -2.39663        21.06729         3.84295
   H       -0.36362        23.76597         1.83839
   H       -4.06044        24.38218         6.87288
   H       -1.28593        28.07852         5.00733
   H       -2.20292        29.59736         6.64504
   H       -3.69561        30.04485         8.55229
   H       -5.08004        28.23956         9.49648
   H       -4.98113        25.97098         8.54090
*
