# ORCA input file
# SCF done       -177.712064092313          0.000891319523
! CAM-B3LYP def2-SVP def2/J RIJCOSX Grid4 TightSCF
%maxcore 5000
%tddft
    Mode sTDDFT
    Ethresh 5.0
    maxcore 5000
end

%pal
  nprocs 6
  end
* xyz 0 1
   C        5.12903         4.62803         1.36129
   N        4.83135         4.57589         0.03794
   C        5.68009         4.05206        -1.00221
   C        5.69793         2.52580        -0.99519
   C        3.52064         5.05054        -0.21706
   O        3.05019         5.13359        -1.33228
   C        3.01756         5.39532         1.09143
   C        4.05547         5.13208         2.04224
   C        3.57456         5.52756         3.34994
   O        4.07525         5.49509         4.45202
   N        2.27405         6.01003         3.10171
   C        1.46025         6.53263         4.17108
   C        1.50208         8.05862         4.22440
   C        1.93195         5.93102         1.76735
   C        0.67212         6.33948         1.25648
   C        0.27382         6.09372        -0.01807
   C       -0.97348         6.53396        -0.52723
   O       -1.74936         7.38772         0.17494
   C       -2.84723         7.67373        -0.56910
   C       -2.77732         6.99688        -1.77627
   C       -1.58118         6.25846        -1.75840
   C       -1.08817         5.30232        -2.77038
   O       -0.33553         4.40261        -2.52346
   O       -1.57171         5.48425        -4.01420
   C       -3.85950         8.54555        -0.09962
   C       -3.84329         9.14979         1.11774
   C       -4.87744        10.01676         1.54175
   N       -4.91180        10.63082         2.77895
   C       -3.96880        10.44907         3.85547
   C       -4.19523         9.13149         4.59298
   C       -6.03853        11.44038         2.92955
   O       -6.27737        12.09028         3.94110
   C       -6.74698        11.31643         1.68241
   C       -6.01022        10.43764         0.84807
   C       -6.70108        10.34749        -0.41760
   O       -6.46813         9.71668        -1.43276
   N       -7.81475        11.18953        -0.27024
   C       -8.74883        11.39762        -1.34920
   C       -8.46127        12.69242        -2.10586
   C       -7.85920        11.77714         0.97336
   C       -8.85550        12.67901         1.40826
   C       -8.85754        13.11935         2.69850
   C       -9.75469        14.05634         3.24604
   O      -10.71642        14.60464         2.46304
   C      -11.44881        15.45667         3.21608
   C      -10.95898        15.45932         4.51096
   C       -9.86892        14.57269         4.54602
   C       -9.13440        14.34194         5.81663
   O       -9.59407        14.75714         6.85106
   O       -7.97049        13.69662         5.82679
   C      -12.51439        16.16513         2.59949
   C      -13.33388        17.01969         3.25663
   C      -14.39150        17.74591         2.65425
   S      -14.71369        17.60511         0.94719
   C      -16.03356        18.68933         1.07885
   C      -16.25093        19.13528         2.34665
   C      -17.32275        20.12569         2.66340
   C      -15.30851        18.59585         3.27406
   C      -15.24399        18.88760         4.68530
   C      -16.27440        19.19866         5.48981
   C      -16.11202        19.47075         6.89378
   C      -17.12707        19.74100         7.71247
   H        6.08886         4.31169         1.72656
   H        6.69244         4.44702        -0.87352
   H        5.26860         4.41503        -1.94805
   H        6.07670         2.14951        -0.04707
   H        6.33471         2.16053        -1.79596
   H        4.69228         2.14136        -1.14658
   H        1.87944         6.12604         5.09603
   H        0.43350         6.17222         4.06090
   H        2.52504         8.39334         4.37726
   H        0.89282         8.41627         5.05017
   H        1.13198         8.49361         3.29845
   H       -0.00218         6.85613         1.92491
   H        0.89557         5.53550        -0.70378
   H       -3.53415         7.02893        -2.53545
   H       -2.15319         6.25319        -4.07633
   H       -4.68246         8.71813        -0.77885
   H       -3.01563         8.96749         1.78772
   H       -4.12816        11.28492         4.54243
   H       -2.94989        10.50574         3.46191
   H       -5.19630         9.11198         5.01650
   H       -3.47541         9.03286         5.40088
   H       -4.08812         8.28390         3.91947
   H       -9.76775        11.39653        -0.95245
   H       -8.63026        10.54514        -2.02405
   H       -8.52510        13.55330        -1.44401
   H       -9.17960        12.81566        -2.91166
   H       -7.46185        12.65761        -2.53250
   H       -9.60891        13.02043         0.71504
   H       -8.10922        12.72082         3.36311
   H      -11.31816        16.02129         5.34734
   H       -7.60185        13.37055         4.99015
   H      -12.65242        15.98498         1.54186
   H      -13.19146        17.16405         4.31733
   H      -16.58247        18.95207         0.19557
   H      -17.61714        20.65449         1.75929
   H      -16.97090        20.84641         3.39902
   H      -18.20573        19.62561         3.06191
   H      -14.25882        18.82075         5.13047
   H      -17.28652        19.22045         5.11614
   H      -15.09962        19.44543         7.27652
   H      -18.14483        19.77027         7.35855
   H      -16.97788        19.93922         8.75953
*
