# ORCA input file
# SCF done       -169.061690778347          0.000939415791
! CAM-B3LYP def2-SVP def2/J RIJCOSX Grid4 TightSCF
%maxcore 5000
%tddft
    Mode sTDDFT
    Ethresh 5.0
    maxcore 5000
end

%pal
  nprocs 6
  end
* xyz 0 1
   C       -0.55857        -1.28612        -0.72822
   C       -0.01957        -0.03571        -0.73782
   C        0.91805         0.53087         0.27193
   F        1.15806        -0.33687         1.26397
   F        2.11179         0.85295        -0.25428
   F        0.44684         1.65081         0.84462
   S       -0.52132         0.91724        -2.08688
   C       -1.48610        -0.40294        -2.65476
   C       -2.23516        -0.29140        -3.82725
   N       -2.85849        -0.22109        -4.78874
   C       -1.41593        -1.52431        -1.83273
   C       -2.13985        -2.72876        -2.11628
   C       -2.09619        -3.84719        -1.36205
   C       -2.81971        -5.04130        -1.64183
   S       -2.64837        -6.40620        -0.57064
   C       -3.75215        -7.36746        -1.51010
   C       -4.21491        -6.63043        -2.60382
   C       -3.68910        -5.33132        -2.67100
   C       -5.11817        -7.13471        -3.55809
   N       -5.84817        -7.50535        -4.36022
   C       -4.09581        -8.69447        -1.17251
   C       -3.58071        -9.34771        -0.09570
   C       -3.92392       -10.67528         0.24483
   N       -3.38545       -11.35532         1.31637
   C       -2.36311       -10.87756         2.21486
   C       -0.97487       -10.93542         1.58202
   C       -3.90338       -12.65410         1.43026
   O       -3.56889       -13.43637         2.30035
   C       -4.84528       -12.76217         0.33953
   C       -4.83274       -11.53473        -0.36860
   C       -5.78815       -11.63207        -1.44836
   O       -6.12565       -10.84643        -2.31054
   N       -6.32960       -12.92337        -1.31662
   C       -7.29852       -13.42134        -2.26238
   C       -6.65845       -14.33493        -3.30476
   C       -5.77486       -13.61083        -0.26166
   C       -6.14244       -14.93069         0.10017
   C       -5.54343       -15.59162         1.12399
   C       -5.86510       -16.91080         1.53786
   S       -4.93562       -17.65309         2.80999
   C       -5.85708       -19.11460         2.72634
   C       -6.85127       -19.00879         1.75112
   C       -6.84585       -17.77079         1.08755
   C       -7.80369       -19.99573         1.44653
   N       -8.61286       -20.76237         1.17264
   C       -5.51537       -20.19512         3.59245
   C       -6.11064       -21.40192         3.60027
   C       -5.75098       -22.50047         4.46895
   C       -4.47433       -22.84321         4.86212
   C       -3.18140       -22.22521         4.46003
   F       -3.15666       -21.85306         3.16977
   F       -2.87866       -21.11870         5.17204
   F       -2.15189       -23.06435         4.63370
   S       -4.41589       -24.23533         5.87507
   C       -6.14076       -24.38535         5.78037
   C       -6.75539       -25.40678         6.51100
   N       -7.21994       -26.25257         7.13228
   C       -6.72540       -23.41143         4.99313
   C       -8.14716       -23.26891         4.74148
   C       -9.05533       -24.22853         4.87708
   H       -0.34826        -2.00349         0.04336
   H       -2.75281        -2.70069        -3.00619
   H       -1.47993        -3.87805        -0.47433
   H       -3.94576        -4.63804        -3.45152
   H       -4.80631        -9.19027        -1.82303
   H       -2.87160        -8.83086         0.53799
   H       -2.39596       -11.53801         3.08597
   H       -2.60341        -9.85982         2.53562
   H       -0.73393       -11.96042         1.31142
   H       -0.23241       -10.57960         2.29086
   H       -0.92735       -10.32084         0.68572
   H       -7.71648       -12.53991        -2.75671
   H       -8.10051       -13.93870        -1.72823
   H       -5.90169       -13.78746        -3.86076
   H       -7.41489       -14.68499        -4.00149
   H       -6.18755       -15.19596        -2.83511
   H       -6.92436       -15.40847        -0.47136
   H       -4.75513       -15.09826         1.67754
   H       -7.54853       -17.52770         0.31088
   H       -4.71865       -19.97393         4.28848
   H       -6.93792       -21.59618         2.93375
   H       -8.45279       -22.28933         4.40081
   H       -8.80301       -25.22664         5.18932
   H      -10.09279       -24.03851         4.66523
*
