# ORCA input file
# SCF done       -159.724205767999          0.000768524120
! CAM-B3LYP def2-SVP def2/J RIJCOSX Grid4 TightSCF
%maxcore 5000
%tddft
    Mode sTDDFT
    Ethresh 5.0
    maxcore 5000
end

%pal
  nprocs 6
  end
* xyz 0 1
   C       -1.65583        -0.82521         0.53196
   C       -2.01903        -1.67757        -0.47825
   C       -3.12709        -2.54801        -0.47250
   N       -4.04141        -3.22938        -0.61203
   C       -1.38350        -1.72312        -1.73768
   N       -0.90362        -1.83119        -2.77552
   C       -0.69574         0.27367         0.40929
   C       -0.81540         1.11623         1.53073
   C       -0.04610         2.25766         1.65268
   C        0.85748         2.55386         0.64501
   C        1.00023         1.72558        -0.46705
   C        0.21668         0.57847        -0.58570
   C        2.00891         2.05271        -1.52168
   C       -1.80747         0.55736         2.46428
   O       -2.18772         1.01091         3.52036
   C       -2.22121        -0.73845         1.85908
   C       -2.84741        -1.66602         2.63849
   C       -3.06867        -2.98565         2.32829
   C       -3.22762        -4.17615         2.09422
   C       -3.39328        -5.44469         1.71892
   C       -3.52678        -6.59184         1.31989
   C       -3.66841        -7.86343         0.80899
   N       -3.93580        -8.09637        -0.52563
   C       -4.10340        -7.07009        -1.52451
   C       -2.76861        -6.47304        -1.96082
   C       -4.00964        -9.46317        -0.80644
   O       -4.25245        -9.89998        -1.92343
   C       -3.76808       -10.10736         0.46302
   C       -3.56778        -9.09542         1.43674
   C       -3.32637        -9.73000         2.71724
   O       -3.09866        -9.28351         3.81891
   N       -3.39349       -11.10732         2.42742
   C       -3.35750       -12.09145         3.48204
   C       -4.76894       -12.46606         3.92947
   C       -3.66228       -11.34885         1.10404
   C       -3.83316       -12.64328         0.55952
   C       -4.23216       -12.80161        -0.72902
   C       -4.57753       -14.04482        -1.32881
   C       -5.40234       -14.09010        -2.42470
   O       -5.66557       -15.23308        -3.12657
   C       -5.15422       -16.36995        -2.56770
   C       -4.37581       -16.34059        -1.37237
   C       -3.98319       -17.57550        -0.97488
   S       -4.55479       -18.79322        -2.05466
   C       -5.33278       -17.62407        -3.05138
   O       -4.05348       -15.17562        -0.74264
   C       -6.03063       -12.91481        -2.96744
   S       -5.98230       -12.70483        -4.68639
   C       -6.57432       -11.12008        -4.57534
   C       -6.84384       -10.74397        -3.27610
   C       -6.59185       -11.80641        -2.34085
   C       -6.93138       -11.58164        -0.97239
   N       -6.97736       -12.61457        -0.01363
   O       -7.05340       -13.77124        -0.40645
   O       -6.96646       -12.30942         1.17231
   C       -7.31317       -10.31558        -0.56915
   C       -7.44846        -9.26366        -1.46119
   C       -7.25167        -9.45116        -2.82088
   N       -7.47143        -8.44964        -3.70385
   H       -0.15588         2.89443         2.51705
   H        1.46875         3.44144         0.71962
   H        0.33906        -0.05879        -1.44708
   H        2.07722         3.12751        -1.67324
   H        1.75640         1.57403        -2.46422
   H        2.99232         1.69589        -1.21331
   H       -3.13021        -1.33776         3.63524
   H       -4.74574        -6.28059        -1.12248
   H       -4.59494        -7.55127        -2.37498
   H       -2.26510        -6.01413        -1.11315
   H       -2.93690        -5.70801        -2.71350
   H       -2.12739        -7.24566        -2.37846
   H       -2.81284       -11.63318         4.31245
   H       -2.80526       -12.97040         3.14061
   H       -5.24977       -11.60637         4.38937
   H       -4.72754       -13.27250         4.65628
   H       -5.37655       -12.77851         3.08273
   H       -3.72952       -13.50535         1.20001
   H       -4.34748       -11.92615        -1.35098
   H       -3.39726       -17.83774        -0.11920
   H       -5.87285       -17.92199        -3.92546
   H       -6.68220       -10.54334        -5.47257
   H       -7.53139       -10.16617         0.47801
   H       -7.73755        -8.28946        -1.09779
   H       -7.62174        -7.52060        -3.34978
   H       -7.15799        -8.54020        -4.65298
*
