# ORCA input file
# SCF done       -174.618314716905          0.000767157504
! CAM-B3LYP def2-SVP def2/J RIJCOSX Grid4 TightSCF
%maxcore 5000
%tddft
    Mode sTDDFT
    Ethresh 5.0
    maxcore 5000
end

%pal
  nprocs 6
  end
* xyz 0 1
   C        5.62628         4.13011        -1.47662
   C        5.31590         5.34886        -0.95712
   S        5.39492         5.33120         0.76628
   C        5.85584         3.64550         0.79280
  Cl        6.13650         2.82946         2.24982
   C        5.93511         3.15304        -0.47585
   C        6.25724         1.86758        -1.10541
   O        6.59173         0.84339        -0.55803
   C        6.16349         2.13732        -2.57731
   C        5.72571         3.51310        -2.78256
   C        5.37561         4.11569        -3.95835
   C        4.93013         5.45559        -3.98752
   N        4.57295         6.54486        -4.02910
   C        5.36534         3.52433        -5.23628
   N        5.31087         3.13915        -6.31691
   C        6.57761         1.29529        -3.55315
   C        6.89988        -0.10548        -3.40065
   C        7.94973        -0.65276        -4.13056
   C        8.30184        -1.98945        -4.00629
   N        9.45017        -2.38538        -4.77586
   O        9.71996        -1.71379        -5.75215
   O       10.10573        -3.34818        -4.42592
   C        7.54863        -2.87214        -3.19328
   C        6.46481        -2.30228        -2.50492
   C        6.15552        -0.96713        -2.58244
   C        7.82521        -4.28230        -3.13864
   C        7.09509        -5.22499        -2.50038
   C        7.40816        -6.61548        -2.50054
   S        6.69240        -7.60233        -1.25149
   C        7.62130        -8.96955        -1.71192
   C        8.44401        -8.70718        -2.77420
   C        8.27623        -7.37465        -3.27845
   N        8.93544        -6.97370        -4.42717
   C       10.11823        -7.74762        -4.74622
   C        9.73932        -9.22978        -4.72942
   N        9.34209        -9.58864        -3.37807
   C       10.05068       -10.60309        -2.75330
   O       10.75813       -11.34429        -3.37604
   O        9.91653       -10.69737        -1.42797
   C        8.37314        -6.16998        -5.37585
   C        7.05221        -5.92914        -5.51461
   C        6.51612        -4.92396        -6.36721
   S        7.47273        -3.57287        -6.87556
   C        6.10015        -2.79845        -7.60344
   C        6.30722        -1.52762        -8.23753
   O        5.44669        -0.79872        -8.68866
   C        4.96445        -3.60482        -7.50007
   C        5.21805        -4.80217        -6.81599
   C        3.67890        -3.27532        -8.07963
   C        3.04211        -2.09521        -7.99542
   C        1.94698        -1.73726        -8.96096
   O        1.31233        -2.50422        -9.64000
   C        1.90570        -0.27217        -8.91111
   C        1.31777         0.74046        -9.61007
   S        1.84622         2.29256        -9.00159
   C        2.84387         1.56339        -7.80177
   C        2.77312         0.20755        -7.87193
   C        3.35589        -0.92112        -7.18855
   C        3.87051        -0.91185        -5.92182
   C        3.91976         0.25433        -5.13570
   N        3.94963         1.16150        -4.43242
   C        4.28945        -2.05503        -5.21682
   N        4.62180        -2.94365        -4.56869
  Cl        0.22715         0.62375       -10.90009
   H        5.05124         6.25670        -1.46189
   H        6.71693         1.69450        -4.55139
   H        8.54343        -0.02546        -4.78055
   H        5.85074        -2.93623        -1.88859
   H        5.30363        -0.58463        -2.04530
   H        8.72019        -4.60111        -3.64490
   H        6.23562        -4.95830        -1.90230
   H        7.45291        -9.89904        -1.20435
   H       10.48779        -7.45633        -5.72819
   H       10.89754        -7.55708        -4.00053
   H       10.58089        -9.86723        -5.00325
   H        8.90961        -9.41092        -5.42072
   H        9.47240        -9.93246        -1.03290
   H        9.08456        -5.69495        -6.04049
   H        6.33149        -6.48972        -4.93716
   H        7.37288        -1.23286        -8.26694
   H        4.45974        -5.53745        -6.61548
   H        3.21741        -4.04311        -8.69167
   H        3.45445         2.17862        -7.16697
*
