# ORCA input file
# SCF done       -191.163100188335          0.000707133607
! CAM-B3LYP def2-SVP def2/J RIJCOSX Grid4 TightSCF
%maxcore 5000
%tddft
    Mode sTDDFT
    Ethresh 5.0
    maxcore 5000
end

%pal
  nprocs 6
  end
* xyz 0 1
   C        2.60059         1.63009        -1.89279
   C        1.89984         1.00093        -2.88836
   C        2.44405         0.00100        -3.72299
   N        2.82120        -0.81380        -4.43802
   C        0.54215         1.21048        -3.21205
   N       -0.55816         1.30049        -3.52932
   C        3.97299         1.32138        -1.51233
   C        4.29012         2.05706        -0.33644
   C        5.51087         1.96597         0.26818
   C        6.49406         1.12069        -0.29188
   C        6.18807         0.38527        -1.47353
   C        4.91336         0.49821        -2.07426
   C        7.17760        -0.45319        -2.02619
   C        8.40982        -0.56151        -1.44114
   C        8.70989         0.16333        -0.27800
   C        7.77231         0.98630         0.28470
   C        3.13474         2.87521         0.06383
   O        3.07266         3.57931         1.05002
   C        2.10495         2.65898        -0.98652
   C        0.94731         3.35152        -1.19831
   C        0.31215         4.36828        -0.44825
   S       -1.07887         5.13614        -1.18766
   C       -1.31316         6.17919         0.17052
   C       -0.35139         5.91055         1.16033
   C        0.54861         4.90050         0.80670
   C       -0.27199         6.56226         2.40309
   N       -0.18371         7.07146         3.42805
   C       -2.35455         7.13524         0.12930
   C       -2.61675         8.05473         1.09820
   C       -3.64564         9.01651         0.96748
   N       -3.92577         9.96679         1.92112
   C       -3.30468        10.09459         3.21829
   C       -3.82178         9.05077         4.20439
   C       -4.96469        10.82933         1.51943
   O       -5.38402        11.74588         2.19280
   C       -5.32952        10.34728         0.20457
   C       -4.51535         9.23474        -0.10334
   C       -4.89328         8.77513        -1.41872
   O       -4.49148         7.85602        -2.10603
   N       -5.92390         9.64800        -1.82326
   C       -6.49979         9.49466        -3.13751
   C       -5.91817        10.49331        -4.13571
   C       -6.18450        10.60369        -0.86525
   C       -7.09974        11.68805        -0.86197
   C       -7.99215        12.07367        -1.80619
   C       -8.82510        13.22245        -1.68547
   S       -9.92183        13.59968        -2.98715
   C      -10.48322        15.01399        -2.18015
   C      -11.40552        15.95832        -2.84734
   O      -11.33608        17.14711        -2.68363
   O      -12.29864        15.41926        -3.68362
   C       -9.85363        15.18539        -0.95697
   C       -8.90922        14.17347        -0.69394
   C      -10.11013        16.27517        -0.04137
   C      -11.32226        16.79213         0.24708
   C      -11.59823        17.97314         1.06070
   C      -10.68791        18.72477         1.75031
   C      -11.02019        19.86585         2.51366
   N      -11.22223        20.79469         3.15669
   C       -9.30158        18.47037         1.83060
   N       -8.16915        18.32670         1.95310
   C      -13.03127        18.22391         0.99768
   C      -13.65026        17.17979         0.25176
   C      -12.63099        16.23470        -0.21157
   O      -12.81961        15.19294        -0.80578
   C      -14.99674        17.15516         0.02061
   C      -15.80075        18.19987         0.52505
   C      -15.18975        19.25174         1.26833
   C      -13.79559        19.24606         1.49834
   C      -16.00129        20.29405         1.76167
   C      -17.35006        20.29951         1.53194
   C      -17.95041        19.26329         0.80043
   C      -17.19258        18.23583         0.30808
   H        5.72308         2.53422         1.16165
   H        4.71683        -0.06797        -2.97055
   H        6.94167        -1.01003        -2.92113
   H        9.16078        -1.20668        -1.87183
   H        9.68757         0.06640         0.16979
   H        7.99723         1.54675         1.18029
   H        0.41577         3.11937        -2.11412
   H        1.35197         4.57242         1.44173
   H       -2.96717         7.12422        -0.76367
   H       -2.01824         8.08073         1.99539
   H       -3.56055        11.09622         3.57489
   H       -2.21850        10.02208         3.11600
   H       -4.89797         9.15055         4.32387
   H       -3.34794         9.19703         5.17057
   H       -3.60013         8.04341         3.85957
   H       -7.58786         9.57062        -3.07483
   H       -6.24285         8.47930        -3.45528
   H       -6.06418        11.51808        -3.80183
   H       -6.39422        10.36655        -5.10414
   H       -4.85117        10.31842        -4.24865
   H       -7.02967        12.26857         0.04866
   H       -8.11444        11.52375        -2.72569
   H      -12.33933        14.45510        -3.62024
   H       -8.32603        14.14325         0.20841
   H       -9.22548        16.67586         0.43598
   H      -15.43907        16.35238        -0.55039
   H      -13.36522        20.05883         2.06128
   H      -15.53482        21.08973         2.32366
   H      -17.96262        21.10330         1.91186
   H      -19.01616        19.28422         0.62865
   H      -17.64876        17.43599        -0.25659
*
