# ORCA input file
# SCF done       -193.827260932602          0.000228646267
! CAM-B3LYP def2-SVP def2/J RIJCOSX Grid4 TightSCF
%maxcore 5000
%tddft
    Mode sTDDFT
    Ethresh 5.0
    maxcore 5000
end

%pal
  nprocs 6
  end
* xyz 0 1
   C        3.27976         7.87985        -5.52825
   C        4.07880         7.40011        -4.52365
   C        5.47927         7.26453        -4.63077
   N        6.61951         7.13351        -4.65250
   C        3.62989         6.92303        -3.27368
   N        3.34358         6.49371        -2.24762
   C        3.73501         8.25025        -6.86170
   C        2.59181         8.48489        -7.67589
   C        2.70003         8.83983        -8.98962
   C        3.98467         8.98696        -9.55846
   C        5.13507         8.76354        -8.74778
   C        4.99041         8.39181        -7.39137
   C        6.41205         8.91936        -9.32438
   C        6.54814         9.27731       -10.63805
   C        5.41478         9.49629       -11.43533
   C        4.16032         9.35369       -10.90718
   C        1.36769         8.29123        -6.88092
   O        0.23107         8.36922        -7.29824
   C        1.83015         8.01568        -5.49596
   C        1.10290         8.03504        -4.33965
   C       -0.29023         8.11945        -4.12114
   S       -0.81342         8.35995        -2.46053
   C       -2.47667         8.32256        -2.91844
   C       -2.60157         8.11506        -4.30113
   C       -1.37818         8.00406        -4.96664
   C       -3.85569         8.03071        -4.93028
   N       -4.88951         7.96203        -5.42264
   C       -3.55170         8.48962        -2.01629
   C       -3.41549         8.74269        -0.68995
   C       -4.50543         8.92948         0.18912
   S       -6.14884         8.75668        -0.40384
   C       -6.79745         9.09488         1.16046
   N       -8.13034         9.18031         1.32717
   C       -9.03239         9.08929         0.20755
   C       -5.79934         9.31178         2.12521
   C       -4.49691         9.23415         1.54035
   C       -3.20958         9.44062         2.25086
   O       -2.19338         9.78899         1.69754
   O       -3.29710         9.19653         3.55763
   C       -2.12526         9.38464         4.35007
   C       -6.04329         9.62003         3.49366
   C       -7.15385         9.34803         4.23041
   C       -7.26887         9.71144         5.59638
   C       -6.33262        10.30777         6.41714
   C       -6.88841        10.50554         7.70220
   C       -8.27432         9.98709         7.63840
   C       -8.47594         9.50044         6.38892
   C       -9.20684         9.93477         8.68069
   N      -10.00304         9.85073         9.50437
   C       -6.27524        11.06612         8.80209
   C       -6.88549        11.43878        10.03271
   C       -5.93509        12.01859        10.84912
   C       -4.66019        11.96656        10.15195
   C       -4.85503        11.42970         8.91629
   C       -3.86553        11.20867         7.95567
   N       -3.04144        11.02354         7.17485
   C       -6.06227        12.54009        12.16201
   C       -7.18277        13.03789        12.76094
   C       -7.27804        13.45117        14.15002
   C       -6.40128        13.13154        15.15487
   C       -6.55522        13.53977        16.49617
   N       -6.61675        13.84656        17.60085
   C       -5.24559        12.33649        15.00634
   N       -4.29858        11.68743        14.97260
   C       -8.51857        14.19800        14.31390
   C       -9.20832        14.20539        13.06899
   C       -8.42562        13.46976        12.06049
   O       -8.71595        13.32957        10.89304
   C      -10.41329        14.82743        12.91365
   C      -10.99687        15.48294        14.02058
   C      -10.31008        15.48682        15.26901
   C       -9.06209        14.83519        15.39823
   C      -10.89932        16.14890        16.36540
   C      -12.10900        16.77541        16.23732
   C      -12.78484        16.76969        15.00793
   C      -12.24083        16.13678        13.92338
   H        1.81583         9.00825        -9.58637
   H        5.88051         8.23614        -6.80285
   H        7.28168         8.74809        -8.70707
   H        7.53061         9.39367       -11.07042
   H        5.54063         9.77880       -12.46984
   H        3.28383         9.52103       -11.51597
   H        1.67208         8.00740        -3.41713
   H       -1.28655         7.85168        -6.02656
   H       -4.54202         8.41817        -2.45325
   H       -2.43004         8.84447        -0.25586
   H       -8.44663         9.70212         2.13257
   H       -8.90032         9.92110        -0.49231
   H      -10.05545         9.08845         0.57437
   H       -8.84659         8.15917        -0.33109
   H       -1.40438         9.99983         3.81009
   H       -1.68659         8.41011         4.56732
   H       -2.43045         9.87158         5.27618
   H       -5.22098        10.09420         4.00559
   H       -7.98034         8.78373         3.81976
   H       -5.33781        10.59383         6.14343
   H       -9.37410         9.03658         6.02250
   H       -7.91913        11.28627        10.26648
   H       -3.72876        12.31832        10.55690
   H       -5.13595        12.56459        12.72541
   H      -10.91607        14.81513        11.95802
   H       -8.56448        14.86210        16.35462
   H      -10.37610        16.14926        17.31039
   H      -12.55240        17.27888        17.08333
   H      -13.73843        17.26939        14.92466
   H      -12.75628        16.12852        12.97409
*
