# ORCA input file
# SCF done       -192.166764286903          0.000985773898
! CAM-B3LYP def2-SVP def2/J RIJCOSX Grid4 TightSCF
%maxcore 5000
%tddft
    Mode sTDDFT
    Ethresh 5.0
    maxcore 5000
end

%pal
  nprocs 6
  end
* xyz 0 1
   C        0.47376        -0.09411        -1.88967
   C        1.63007        -0.67660        -1.43988
   C        2.17270        -1.86624        -1.97094
   N        2.66887        -2.82680        -2.35672
   C        2.45486        -0.18261        -0.40777
   N        3.17869         0.15343         0.41846
   C       -0.35339        -0.59620        -2.98219
   C       -1.41826         0.32317        -3.20672
   C       -2.36081         0.12053        -4.17316
   C       -2.28511        -1.04120        -4.97331
   C       -1.22781        -1.97058        -4.75240
   C       -0.26287        -1.72904        -3.74705
   C       -1.16617        -3.13024        -5.55135
   C       -2.10273        -3.36236        -6.52194
   C       -3.14226        -2.44593        -6.73927
   C       -3.23122        -1.30938        -5.98179
   C       -1.30589         1.43343        -2.25252
   O       -2.04050         2.40142        -2.17364
   C       -0.13883         1.13210        -1.40548
   C        0.25406         1.85271        -0.31221
   C       -0.28952         3.03100         0.23943
   S       -1.60750         3.99067        -0.37947
   C       -1.48280         5.10494         0.93966
   C       -0.45433         4.73608         1.82643
   C        0.20897         3.58205         1.41737
   C       -0.09826         5.42514         2.99811
   N        0.20657         5.95757         3.96859
   C       -2.38934         6.18957         0.99113
   C       -2.49727         7.08454         2.01038
   C       -3.44947         8.13173         2.00206
   N       -3.63763         8.99746         3.05674
   C       -2.95331         8.96614         4.32777
   C       -3.50264         7.87598         5.24404
   C       -4.65970         9.92382         2.80217
   O       -5.01295        10.77630         3.59452
   C       -5.11042         9.60198         1.46597
   C       -4.34900         8.49820         1.00252
   C       -4.79018         8.18679        -0.33760
   O       -4.45090         7.33379        -1.13354
   N       -5.79128         9.13948        -0.60399
   C       -6.49684         9.14659        -1.86179
   C       -7.88227         8.51245        -1.74835
   C       -6.00094         9.97614         0.46564
   C       -6.99851        10.99031         0.48392
   C       -7.26225        11.73719         1.57624
   C       -8.32366        12.69649         1.65614
   C       -8.65255        13.45732         2.76371
   O       -9.72232        14.20890         2.54532
   C      -10.12706        13.95269         1.28751
   N      -11.27737        14.58818         0.77831
   O      -11.57514        14.31745        -0.37406
   O      -11.88424        15.34312         1.50249
   C       -9.30894        13.02646         0.67341
   C       -9.43585        12.53826        -0.69181
   C      -10.33071        11.60165        -1.04782
   C      -10.61283        11.05809        -2.37099
   C       -9.80750        11.15902        -3.47029
   C      -10.10506        10.59249        -4.72864
   N      -10.28803        10.14276        -5.76793
   C       -8.53987        11.77647        -3.45425
   N       -7.47961        12.21696        -3.46027
   C      -11.86127        10.32051        -2.27422
   C      -12.28028        10.28763        -0.91021
   C      -11.32314        11.03370        -0.08438
   O      -11.31436        11.18007         1.11659
   C      -13.42074         9.64175        -0.52495
   C      -14.20947         8.99313        -1.50074
   C      -13.80198         9.03009        -2.86691
   C      -12.61697         9.70318        -3.23756
   C      -14.60121         8.38385        -3.83235
   C      -15.74722         7.73108        -3.46808
   C      -16.14655         7.69384        -2.12332
   C      -15.39420         8.31084        -1.16063
   H       -3.15553         0.83628        -4.32238
   H        0.52250        -2.45418        -3.60582
   H       -0.36350        -3.83266        -5.38124
   H       -2.04728        -4.25423        -7.12785
   H       -3.87239        -2.64487        -7.50940
   H       -4.02927        -0.59980        -6.14421
   H        1.09888         1.47458         0.25111
   H        1.03072         3.14690         1.96020
   H       -3.05176         6.27979         0.13921
   H       -1.85292         7.00167         2.87199
   H       -3.11933         9.94630         4.78329
   H       -1.88128         8.82865         4.16454
   H       -4.56073         8.04377         5.43063
   H       -2.97307         7.89511         6.19204
   H       -3.37881         6.89216         4.79711
   H       -5.88608         8.55626        -2.55081
   H       -6.56151        10.17015        -2.24134
   H       -7.79113         7.48228        -1.41268
   H       -8.36796         8.51547        -2.72107
   H       -8.50846         9.05018        -1.03816
   H       -7.57448        11.13549        -0.41891
   H       -6.67602        11.60564         2.47604
   H       -8.17983        13.51765         3.72514
   H       -8.78259        13.00507        -1.41890
   H      -13.71833         9.62849         0.51299
   H      -12.33717         9.72169        -4.27925
   H      -14.28897         8.41441        -4.86582
   H      -16.35308         7.23979        -4.21440
   H      -17.05391         7.17445        -1.85424
   H      -15.69740         8.28577        -0.12435
*
