# ORCA input file
# SCF done       -167.969597901882          0.000570375000
! CAM-B3LYP def2-SVP def2/J RIJCOSX Grid4 TightSCF
%maxcore 5000
%tddft
    Mode sTDDFT
    Ethresh 5.0
    maxcore 5000
end

%pal
  nprocs 6
  end
* xyz 0 1
   C       -5.76177        -1.20192         1.68432
   N       -6.23430         0.03347         1.99986
   C       -7.38712         0.31296         2.81901
   C       -7.08823         0.09957         4.30048
   C       -5.41030         1.05014         1.47195
   O       -5.63361         2.23822         1.62058
   C       -4.36891         0.33260         0.78056
   C       -4.62531        -1.06703         0.93711
   C       -3.58234        -1.79266         0.23881
   O       -3.36760        -2.97352         0.08941
   N       -2.75806        -0.77781        -0.29113
   C       -1.61521        -1.09812        -1.11143
   C       -1.90926        -0.91333        -2.59827
   C       -3.21786         0.48214         0.01899
   C       -2.57229         1.67519        -0.39596
   C       -3.06023         2.90731        -0.09985
   C       -2.45221         4.11237        -0.51915
   S       -3.15600         5.65720        -0.10386
   C       -1.93307         6.57388        -0.94798
   C       -1.03015         5.69028        -1.51045
   C       -1.31494         4.33225        -1.27538
   S       -0.10886         3.34178        -2.04654
   C        0.70851         4.81381        -2.63793
   S        2.05564         4.82823        -3.53208
   O        0.07658         5.92601        -2.25346
   C       -1.97956         7.99452        -0.99438
   C       -1.07413         8.75434        -1.64564
   C       -1.09055        10.19182        -1.74842
   C       -0.07522        10.82601        -2.46653
   C       -0.04556        12.20242        -2.61023
   N        1.07686        12.75316        -3.32753
   O        1.64983        12.02245        -4.10634
   O        1.39335        13.90454        -3.10695
   C       -1.04402        13.02470        -2.05299
   C       -2.05497        12.37306        -1.33205
   C       -2.07903        11.00787        -1.17612
   C       -1.08756        14.45266        -2.26574
   C       -1.64326        15.33216        -1.41158
   C       -1.70894        16.73977        -1.65079
   S       -2.56187        17.75950        -0.54349
   C       -2.26405        19.16390        -1.51301
   C       -2.72989        20.43698        -1.03154
   O       -2.65992        21.49700        -1.61583
   C       -1.50408        18.83979        -2.64047
   C       -1.17540        17.47662        -2.68618
   C       -1.03327        19.77063        -3.64066
   C       -1.70544        20.76682        -4.24406
   C       -0.94239        21.82453        -4.99102
   O        0.19959        21.74942        -5.36889
   C       -1.88660        22.94124        -5.08594
   C       -1.86370        24.23731        -5.50865
   S       -3.42584        24.98444        -5.27381
   C       -4.09504        23.53684        -4.61780
   C       -3.16778        22.54333        -4.57608
   C       -3.11065        21.15349        -4.17793
   C       -4.19391        20.34548        -3.98030
   C       -4.13817        18.94974        -3.80243
   N       -4.15716        17.80626        -3.69957
   C       -5.50756        20.86156        -3.99088
   N       -6.58122        21.26440        -3.98869
  Cl       -0.56667        25.09529        -6.17833
   H       -6.27345        -2.08944         2.00761
   H       -8.21623        -0.32599         2.50113
   H       -7.64922         1.35887         2.63816
   H       -6.79900        -0.93186         4.48960
   H       -7.97011         0.32912         4.89173
   H       -6.27751         0.75185         4.61569
   H       -1.38830        -2.14915        -0.91159
   H       -0.76004        -0.48857        -0.80560
   H       -2.73341        -1.55691        -2.89577
   H       -1.03223        -1.17921        -3.18153
   H       -2.17707         0.11739        -2.82000
   H       -1.66145         1.58294        -0.97016
   H       -3.96853         3.00220         0.48016
   H       -2.81264         8.43701        -0.46833
   H       -0.25647         8.26382        -2.15501
   H        0.71684        10.24638        -2.91847
   H       -2.85492        12.96542        -0.91659
   H       -2.88342        10.56212        -0.61307
   H       -0.62848        14.82635        -3.16838
   H       -2.06458        14.99849        -0.47329
   H       -3.19252        20.37223        -0.02818
   H       -0.58361        17.04967        -3.47488
   H        0.01119        19.66520        -3.91901
   H       -5.11713        23.52508        -4.29509
*
