# ORCA input file
# SCF done       -156.618164497802          0.000478000276
! CAM-B3LYP def2-SVP def2/J RIJCOSX Grid4 TightSCF
%maxcore 5000
%tddft
    Mode sTDDFT
    Ethresh 5.0
    maxcore 5000
end

%pal
  nprocs 6
  end
* xyz 0 1
   C        1.64098        -0.07779         1.61002
   S        0.66650        -1.20774         0.77620
   C        0.74931        -2.35030         2.08737
   C        1.51372        -1.83446         3.11658
   C        2.01883        -0.54463         2.83840
   O        2.80485         0.20686         3.65948
   C        3.24616        -0.17219         4.86605
   O        3.94009         0.57243         5.49615
   C        2.89279        -1.53088         5.47467
   O        3.31579        -1.83836         6.55217
   S        1.84884        -2.68122         4.61699
   C        0.11604        -3.62557         2.04498
   C       -0.55134        -4.09009         0.97150
   C       -1.17295        -5.37993         0.85441
   C       -1.39411        -6.28127         1.91226
   N       -1.93143        -7.46189         1.73401
   C       -2.28450        -7.81175         0.49547
   N       -2.14455        -7.02728        -0.57831
   C       -1.60990        -5.84341        -0.39654
   C       -2.87769        -9.12043         0.34254
   N       -2.93396        -9.82506        -0.83118
   C       -2.32343        -9.47970        -2.09239
   C       -0.81178        -9.68506        -2.05721
   C       -3.59280       -11.06251        -0.66402
   O       -3.75387       -11.86258        -1.56062
   C       -3.97586       -11.06696         0.72872
   C       -3.51487        -9.86194         1.32392
   C       -3.98066        -9.85074         2.69794
   O       -3.86417        -9.06006         3.60332
   N       -4.71063       -11.06438         2.82852
   C       -5.23976       -11.44547         4.11636
   C       -4.51169       -12.65010         4.70444
   C       -4.70982       -11.78570         1.66183
   C       -5.35065       -13.02435         1.34977
   C       -6.37769       -13.63891         1.96363
   C       -6.94952       -14.85663         1.41950
   N       -6.25888       -15.52013         0.48828
   C       -6.80880       -16.61503         0.00319
   C       -8.05952       -17.06352         0.39917
   C       -8.72270       -16.29826         1.36785
   N       -8.14074       -15.21511         1.88408
   C      -10.05387       -16.57640         1.87115
   C      -10.88562       -17.50274         1.36253
   C      -12.22141       -17.75633         1.79926
   S      -13.16070       -18.96688         0.98392
   C      -14.55265       -18.68457         1.97541
   C      -14.28258       -17.69200         2.89754
   C      -12.97907       -17.17019         2.80332
   O      -12.45842       -16.19193         3.59428
   C      -13.10287       -15.55292         4.58012
   O      -12.51958       -14.71648         5.20885
   C      -14.55816       -15.85443         4.93120
   O      -15.11363       -15.24482         5.79973
   S      -15.45742       -17.11956         4.07492
   C      -15.78407       -19.40165         1.81775
   C      -15.99389       -20.34789         0.90552
   H        1.89347         0.86585         1.17238
   H        0.22517        -4.22185         2.94033
   H       -0.60982        -3.46189         0.08956
   H       -1.13648        -6.03612         2.93392
   H       -1.50908        -5.22933        -1.28409
   H       -2.56066        -8.44280        -2.33352
   H       -2.77186       -10.14893        -2.83197
   H       -0.35590        -9.03321        -1.31550
   H       -0.38708        -9.45539        -3.03026
   H       -0.57750       -10.71743        -1.80824
   H       -6.31315       -11.63620         4.03949
   H       -5.09052       -10.57246         4.75960
   H       -4.62066       -13.52334         4.06578
   H       -4.92094       -12.88080         5.68404
   H       -3.45287       -12.42812         4.81371
   H       -4.98087       -13.47579         0.43645
   H       -6.88386       -13.25319         2.83370
   H       -6.22411       -17.14821        -0.73613
   H       -8.48638       -17.95907        -0.01908
   H      -10.36115       -15.93683         2.68401
   H      -10.57211       -18.12490         0.53467
   H      -16.56296       -19.11383         2.51186
   H      -15.22208       -20.63833         0.21156
   H      -16.93811       -20.85500         0.82766
*
