# ORCA input file
# SCF done       -157.621099618856          0.000978208118
! CAM-B3LYP def2-SVP def2/J RIJCOSX Grid4 TightSCF
%maxcore 5000
%tddft
    Mode sTDDFT
    Ethresh 5.0
    maxcore 5000
end

%pal
  nprocs 6
  end
* xyz 0 1
   C        3.96035         0.29787         0.23633
   C        3.35616         0.35083        -0.94678
   C        2.32322         1.35894        -1.09579
   C        2.10934         2.11332        -0.00755
   S        3.24409         1.56430         1.29405
   O        2.51492         0.98765         2.38618
   O        4.19431         2.59611         1.59447
   C        1.22414         3.18030         0.25583
   S        1.21695         3.95825         1.82429
   C       -0.04055         4.98508         1.14825
   N       -0.32678         4.68183        -0.09452
   N        0.36216         3.69714        -0.58223
   C       -0.65147         6.03578         1.88564
   C       -1.60356         6.83259         1.34018
   C       -2.20103         7.90741         2.04757
   N       -3.14308         8.74856         1.50506
   C       -3.64900         8.71942         0.15354
   C       -2.66321         9.34130        -0.83208
   C       -3.55359         9.73729         2.41533
   O       -4.39794        10.57359         2.16668
   C       -2.78232         9.46442         3.61068
   C       -1.97592         8.32746         3.35767
   C       -1.22082         8.04304         4.55984
   O       -0.40606         7.18274         4.82390
   N       -1.61974         9.04290         5.46489
   C       -1.12830         9.06343         6.82232
   C       -2.16183         8.52640         7.80912
   C       -2.53969         9.89794         4.91123
   C       -3.07749        11.02816         5.58706
   C       -3.90639        11.89707         4.96968
   C       -4.49956        13.05687         5.57769
   C       -4.61837        14.27018         4.86608
   C       -3.98025        14.47630         3.55032
   O       -3.24702        13.74313         2.96129
   S       -4.40965        16.11557         2.94685
   C       -5.30046        16.54063         4.43873
   O       -5.80851        17.61040         4.60392
   C       -5.27394        15.38973         5.36917
   C       -5.87827        15.40675         6.64344
   C       -5.69817        14.22458         7.37782
   C       -5.04376        13.10220         6.87325
   C       -5.10890        12.05524         7.92425
   O       -4.75435        10.91681         7.91263
   O       -5.69562        12.62113         9.02557
   C       -6.04375        13.93083         8.79319
   O       -6.48089        14.63333         9.64758
   C       -6.61174        16.55302         7.12381
   C       -7.76224        16.47937         7.82116
   C       -8.52333        17.60446         8.23982
   C       -8.25711        18.91663         8.32898
   C       -9.34883        19.74742         8.80285
   C      -10.48409        19.11740         9.08572
   S      -10.24719        17.36103         8.76039
   O      -11.03937        16.93949         7.63909
   O      -10.33435        16.58688         9.96347
   H        4.74005        -0.35482         0.56890
   H        3.58767        -0.29719        -1.77799
   H        1.78414         1.47290        -2.02114
   H       -0.31708         6.18452         2.90271
   H       -1.90968         6.64449         0.32185
   H       -4.57380         9.30308         0.16502
   H       -3.88379         7.68929        -0.12668
   H       -2.46577        10.37438        -0.55669
   H       -3.08488         9.32298        -1.83299
   H       -1.72194         8.79658        -0.83877
   H       -0.82637        10.08059         7.08737
   H       -0.24273         8.42153         6.82870
   H       -3.06292         9.13494         7.81114
   H       -1.74085         8.52242         8.81076
   H       -2.43147         7.50718         7.54388
   H       -2.76272        11.19621         6.60522
   H       -4.12926        11.75402         3.91828
   H       -6.24231        17.51801         6.80870
   H       -8.21371        15.52501         8.05324
   H       -7.30682        19.36586         8.08929
   H       -9.19976        20.81149         8.90347
   H      -11.41042        19.52064         9.43892
*
