# ORCA input file
# SCF done       -174.485878714653          0.000586486354
! CAM-B3LYP def2-SVP def2/J RIJCOSX Grid4 TightSCF
%maxcore 5000
%tddft
    Mode sTDDFT
    Ethresh 5.0
    maxcore 5000
end

%pal
  nprocs 6
  end
* xyz 0 1
   C       -1.15915         1.03906         7.18615
   C       -1.57225        -0.09938         6.55116
   C       -0.84741        -1.29749         6.66596
   F       -1.34757        -2.37678         6.03188
   C        0.30633        -1.43032         7.41094
   C        0.75160        -0.25418         8.06100
   C        0.01764         0.97696         7.95140
   N        0.60221         1.96194         8.63612
   S        1.92533         1.38971         9.33614
   N        1.85047        -0.12120         8.80187
   C        1.02077        -2.67951         7.58676
   C        1.37080        -3.25841         8.78135
   N        1.07793        -2.80151        10.08218
   O        1.66508        -3.33793        11.00440
   O        0.24531        -1.92228        10.22015
   C        2.04607        -4.51575         8.52702
   C        2.04789        -4.73735         7.19505
   C        1.43999        -3.60545         6.53253
   C        1.38427        -3.35971         5.17859
   C        1.37279        -2.07328         4.55403
   C        1.56564        -2.23919         3.21939
   C        1.65096        -3.63954         2.91668
   N        1.81240        -4.04825         1.58422
   O        1.62207        -3.20939         0.71937
   O        2.15414        -5.19770         1.33779
   C        1.50000        -4.37179         4.10278
   C        1.22595        -5.72292         4.37951
   C        1.37594        -6.80607         3.55060
   C        1.04007        -8.10601         3.96282
   N        1.21121        -9.22066         3.17699
   C        1.76048        -9.24909         1.84057
   C        3.28383        -9.16205         1.84923
   C        0.82469       -10.40156         3.83307
   O        0.88652       -11.50796         3.34347
   C        0.36838        -9.94452         5.13243
   C        0.50232        -8.54829         5.18689
   C        0.04658        -8.12086         6.49251
   O       -0.01917        -7.02686         7.01501
   N       -0.33725        -9.31110         7.14732
   C       -0.88833        -9.23791         8.47896
   C       -2.41408        -9.30085         8.46571
   C       -0.15326       -10.41260         6.34649
   C       -0.36464       -11.78517         6.60169
   C       -0.89247       -12.40463         7.69189
   C       -0.99434       -13.81019         7.81737
   S       -0.40351       -14.92153         6.60944
   C       -0.88105       -16.29972         7.54808
   C       -1.48028       -15.89304         8.74537
   C       -1.53689       -14.49910         8.88541
   C       -1.99081       -16.73964         9.74572
   N       -2.42754       -17.36261        10.60434
   C       -0.61436       -17.59774         7.03650
   C       -0.91129       -18.75897         7.66196
   C       -0.62884       -20.07770         7.16622
   C        0.01584       -20.36885         5.97624
   C        0.25309       -21.69207         5.58258
   F        0.88901       -21.87500         4.40994
   C       -0.11730       -22.79232         6.31098
   C       -0.77489       -22.54209         7.52384
   C       -1.03116       -21.19191         7.95394
   N       -1.66134       -21.15572         9.12520
   S       -1.90497       -22.65891         9.63084
   N       -1.22989       -23.43856         8.40158
   H       -1.70918         1.96279         7.12004
   H       -2.47216        -0.11357         5.95655
   H        2.45038        -5.13393         9.30507
   H        2.51871        -5.55648         6.68947
   H        1.33692        -1.13705         5.07558
   H        1.65713        -1.47278         2.47255
   H        0.83500        -5.90762         5.37120
   H        1.78299        -6.67586         2.56025
   H        1.33399        -8.43246         1.25360
   H        1.44833       -10.20290         1.40658
   H        3.61706        -8.21945         2.27597
   H        3.65616        -9.23036         0.83140
   H        3.70313        -9.98030         2.42994
   H       -0.57336        -8.26951         8.87965
   H       -0.45438       -10.02677         9.09799
   H       -2.81121        -8.44257         7.92967
   H       -2.79300        -9.27736         9.48370
   H       -2.76992       -10.20500         7.97625
   H       -0.04136       -12.41019         5.77620
   H       -1.27206       -11.85022         8.53626
   H       -1.96268       -14.01325         9.74606
   H       -0.12729       -17.60828         6.07091
   H       -1.40169       -18.74404         8.62486
   H        0.35691       -19.58558         5.31884
   H        0.08360       -23.79539         5.97584
*
