# ORCA input file
# SCF done       -233.792244975128          0.000941729715
! CAM-B3LYP def2-SVP def2/J RIJCOSX Grid4 TightSCF
%maxcore 5000
%tddft
    Mode sTDDFT
    Ethresh 5.0
    maxcore 5000
end

%pal
  nprocs 6
  end
* xyz 0 1
   C       -0.65601        -3.24620        10.90065
   C       -1.90203        -2.68842        11.18015
   C       -2.32990        -2.39377        12.59099
   O       -3.07715        -1.49528        12.85162
   O       -1.83192        -3.18787        13.54415
   C       -2.77346        -2.33208        10.13715
   C       -4.06284        -1.79790        10.39293
   N       -5.13278        -1.40079        10.48577
   C       -2.39767        -2.51540         8.80228
   C       -1.16197        -3.06774         8.54406
   C       -0.29540        -3.45703         9.58092
   C        0.91429        -4.04248         8.99944
   C        1.74135        -4.90847         9.66912
   C        1.54379        -5.25488        11.02216
   N        1.38198        -5.57250        12.11297
   C        2.81300        -5.61331         9.09080
   N        3.70652        -6.20878         8.68508
   C        0.89355        -3.74967         7.59138
   C       -0.49509        -3.30930         7.24657
   O       -0.94078        -3.15346         6.13583
   C        1.80264        -3.72696         6.56886
   C        3.20579        -3.72270         6.48251
   C        4.23264        -3.57582         7.42436
   N        4.16826        -3.10594         8.74560
   O        5.18720        -3.14024         9.41020
   O        3.10099        -2.67151         9.16016
   C        5.48931        -3.85620         6.80519
   C        5.27078        -4.20855         5.50931
   C        3.87510        -4.05514         5.21740
   C        3.33898        -4.08940         3.93724
   C        2.30609        -3.28327         3.38291
   C        2.29992        -3.45342         2.02624
   C        3.28315        -4.42372         1.66029
   N        3.44059        -4.82895         0.32323
   O        4.39419        -5.53346         0.02571
   O        2.61282        -4.43829        -0.47860
   C        3.92971        -4.86946         2.81944
   C        4.73284        -5.97420         3.13230
   C        5.47842        -6.80729         2.33355
   C        6.19610        -7.85821         2.92901
   N        7.03234        -8.71211         2.26543
   C        7.25987        -8.74746         0.83831
   C        6.09739        -9.39866         0.09555
   C        7.67026        -9.62414         3.13507
   O        8.48548       -10.43787         2.77864
   C        7.13227        -9.28716         4.44713
   C        6.24886        -8.21294         4.29766
   C        5.75215        -7.87300         5.61704
   O        4.94216        -7.04613         5.98330
   N        6.42365        -8.74705         6.49498
   C        6.07618        -8.72526         7.89997
   C        5.30396        -9.97025         8.32267
   C        7.23699        -9.61368         5.81104
   C        8.07086       -10.65646         6.28130
   C        8.52369       -10.86624         7.54608
   C        9.39339       -11.92362         7.91507
   S       10.10441       -11.88119         9.51073
   C       10.96786       -13.37444         9.27901
   C       10.71309       -13.85968         8.00532
   C        9.84052       -13.05287         7.23987
   C        9.60725       -13.66988         5.92530
   O        8.85451       -13.31545         5.05583
   C       10.50178       -14.89864         5.87161
   C       11.19579       -14.99642         7.21430
   O       11.98548       -15.84871         7.54730
   C       11.83358       -13.85206        10.29883
   C       12.23898       -15.12159        10.54422
   C       13.46532       -15.34837        11.37491
   O       14.01523       -14.54064        12.07800
   C       13.86200       -16.74497        11.08691
   C       12.87844       -17.35323        10.28430
   C       13.05902       -18.64626         9.82201
   C       14.20897       -19.33936        10.19024
   C       15.17582       -18.73194        11.01038
   C       15.00471       -17.41955        11.46174
   C       16.34015       -19.42948        11.42500
   N       17.28739       -19.91608        11.84529
   C       14.48709       -20.72337         9.66918
   O       15.60133       -21.11105         9.46847
   O       13.42188       -21.49516         9.43327
   C       11.77885       -16.41476        10.08079
   C       10.49240       -16.76708         9.77693
   C        9.42076       -15.85387         9.74127
   N        8.52714       -15.13485         9.70366
   C       10.11069       -18.09876         9.51190
   N        9.78459       -19.17786         9.30107
   H        0.04091        -3.45848        11.69731
   H       -1.25625        -3.89480        13.22008
   H       -3.05701        -2.22739         7.99763
   H        1.30728        -3.65601         5.60443
   H        6.42899        -3.78266         7.31843
   H        6.02703        -4.42063         4.77861
   H        1.71947        -2.55775         3.91258
   H        1.67307        -2.95091         1.31330
   H        4.74231        -6.19472         4.19039
   H        5.54565        -6.64882         1.26881
   H        8.16986        -9.33569         0.69287
   H        7.42844        -7.73174         0.47197
   H        5.93473       -10.40878         0.46370
   H        6.32768        -9.44819        -0.96445
   H        5.18258        -8.82543         0.22298
   H        5.44149        -7.84290         8.03213
   H        6.97739        -8.59089         8.50283
   H        4.38474       -10.04876         7.74761
   H        5.04447        -9.89128         9.37425
   H        5.88533       -10.87692         8.17202
   H        8.40114       -11.32089         5.49166
   H        8.27973       -10.18445         8.34751
   H       11.22876       -14.81030         5.06041
   H        9.91892       -15.79925         5.66389
   H       12.28256       -13.09255        10.93282
   H       12.34554       -19.08597         9.14135
   H       15.75073       -16.94647        12.08212
   H       12.57197       -21.08960         9.65490
*
