# ORCA input file
# SCF done       -203.323090203389          0.000950164997
! CAM-B3LYP def2-SVP def2/J RIJCOSX Grid4 TightSCF
%maxcore 5000
%tddft
    Mode sTDDFT
    Ethresh 5.0
    maxcore 5000
end

%pal
  nprocs 6
  end
* xyz 0 1
   C        4.54430         1.10874        11.73976
   C        5.29276         0.39722        12.63024
   S        6.39484        -0.70965        11.89249
   C        5.84841        -0.22817        10.34941
   C        4.86011         0.75230        10.41743
   C        4.44002         1.12395         9.06173
   O        3.66140         1.97082         8.69991
   C        5.15908         0.13350         8.18904
   C        6.18948        -0.52274         8.99106
   C        7.33461        -1.09190         8.50673
   C        8.24967        -1.78207         9.32353
   N        8.98279        -2.37924         9.97351
   C        7.68691        -0.94879         7.15272
   N        8.00424        -0.71453         6.07390
   C        4.67964        -0.23059         6.98490
   C        4.92179        -1.45911         6.27352
   C        4.87837        -2.75962         6.76180
   N        4.71855        -3.22539         8.07570
   O        4.78822        -4.43023         8.25038
   O        4.52619        -2.42556         8.98160
   C        4.99003        -3.69609         5.66850
   C        5.22040        -2.99986         4.53834
   C        5.24173        -1.58327         4.85790
   C        5.68177        -0.59034         4.00384
   C        5.31024         0.78111         3.93728
   C        5.72671         1.28921         2.73797
   C        6.47336         0.29273         2.03519
   N        7.10995         0.52073         0.80637
   O        6.97094         1.61650         0.29234
   O        7.75507        -0.39248         0.30937
   C        6.53402        -0.86008         2.81953
   C        7.38893        -1.96492         2.67601
   C        7.78745        -2.69563         3.77055
   C        8.49039        -3.90377         3.89526
   N        9.03922        -4.74170         2.95465
   C        9.17362        -4.50087         1.53652
   C       10.27572        -3.49071         1.23232
   C        9.59217        -5.89326         3.54097
   O       10.14746        -6.76873         2.90747
   C        9.32293        -5.75218         4.96003
   C        8.65836        -4.52839         5.14161
   C        8.32979        -4.39671         6.54727
   O        7.71789        -3.55180         7.16643
   N        8.87585        -5.54834         7.14003
   C        8.72418        -5.78643         8.55868
   C        7.46329        -6.59163         8.86016
   C        9.44454        -6.37886         6.21270
   C       10.03692        -7.62967         6.52118
   C       10.61499        -8.39575         5.56367
   C       11.26427        -9.66348         5.75804
   C       11.29733       -10.34135         6.97837
   C       11.95807       -11.55094         7.10018
   N       11.98738       -12.14996         8.41210
   O       11.14210       -11.79135         9.20372
   O       12.85800       -12.95921         8.65277
   C       12.61589       -12.15153         6.01075
   C       12.57094       -11.46212         4.79078
   C       11.91682       -10.26037         4.66477
   C       13.25194       -13.44780         6.08848
   C       14.38252       -13.75330         5.42524
   C       15.05724       -15.01591         5.46017
   C       14.51836       -16.25572         5.55984
   C       15.29538       -17.49671         5.61838
   C       16.64465       -17.65900         5.78809
   C       17.21130       -18.95206         5.82969
   N       17.67536       -20.00054         5.85901
   C       17.59424       -16.62940         5.93837
   N       18.42120       -15.84393         6.06804
   C       14.34920       -18.56687         5.49346
   C       13.05082       -18.08607         5.38097
   C       12.09723       -19.10940         5.25056
   C       12.69318       -20.33596         5.27200
   S       14.40990       -20.27884         5.44809
   C       13.06663       -16.62052         5.43685
   O       12.11805       -15.87369         5.35397
   H        3.81238         1.84555        12.01409
   H        5.26901         0.46169        13.70066
   H        3.93507         0.42641         6.54668
   H        4.88905        -4.75673         5.79066
   H        5.29448        -3.39256         3.54379
   H        4.70476         1.29656         4.65572
   H        5.55008         2.27698         2.35446
   H        7.77830        -2.14613         1.68375
   H        7.56085        -2.27297         4.74173
   H        8.21370        -4.16951         1.13334
   H        9.42686        -5.46710         1.09070
   H       10.09037        -2.54330         1.73206
   H       10.32202        -3.31230         0.16214
   H       11.23664        -3.87624         1.56465
   H        8.65559        -4.80425         9.03486
   H        9.61634        -6.29167         8.93487
   H        6.57823        -6.03330         8.56317
   H        7.40246        -6.78372         9.92726
   H        7.47334        -7.54306         8.33170
   H       10.01751        -7.94682         7.55302
   H       10.61349        -8.03213         4.54400
   H       10.81530        -9.94083         7.85702
   H       13.03825       -11.91207         3.92883
   H       11.89658        -9.75526         3.71064
   H       12.79943       -14.18139         6.73802
   H       14.91196       -12.97071         4.89476
   H       16.13410       -14.94844         5.35525
   H       11.03993       -18.94857         5.15067
   H       12.21777       -21.29454         5.19668
*
