# ORCA input file
# SCF done       -208.256090526821          0.000970909797
! CAM-B3LYP def2-SVP def2/J RIJCOSX Grid4 TightSCF
%maxcore 5000
%tddft
    Mode sTDDFT
    Ethresh 5.0
    maxcore 5000
end

%pal
  nprocs 6
  end
* xyz 0 1
   C        1.19200         0.42916         1.65310
   C        1.65169        -0.18924         0.52195
   C        2.46750        -1.34089         0.53067
   N        3.13704        -2.27150         0.47145
   C        1.36519         0.20259        -0.80410
   N        1.17326         0.43077        -1.91285
   C        1.42317        -0.01789         3.01965
   C        0.67085         0.80997         3.90011
   C        0.68536         0.62709         5.25319
   C        1.47075        -0.41189         5.79935
   C        2.23469        -1.23949         4.92620
   C        2.19831        -1.02678         3.52939
   C        3.02191        -2.26830         5.48290
   C        3.05214        -2.47277         6.83541
   C        2.29732        -1.65900         7.69374
   C        1.52321        -0.65086         7.18677
   C       -0.06506         1.82378         3.12577
   O       -0.79525         2.67821         3.57957
   C        0.33481         1.60763         1.70547
   C        0.13915         2.46548         0.67209
   C       -0.66848         3.65239         0.63967
   C       -1.87909         3.80776         1.29698
   C       -2.61138         4.98710         1.20802
   C       -2.15372         6.07515         0.48410
   C       -0.91423         5.95239        -0.20835
   C       -0.21208         4.72457        -0.18371
   N        0.88919         4.56808        -0.94218
   C        1.30156         5.56641        -1.67802
   C        0.68315         6.84964        -1.57095
   N       -0.38841         7.01355        -0.84432
   C        1.23777         8.04690        -2.26368
   C        2.45908         5.32422        -2.58363
   C       -2.87283         7.31473         0.32715
   N       -3.51009         8.00566         1.32453
   C       -3.60513         7.65470         2.72293
   C       -4.99819         7.14146         3.07844
   C       -4.01172         9.23463         0.86117
   O       -4.58888        10.03511         1.57687
   C       -3.67078         9.26085        -0.54106
   C       -2.97322         8.06226        -0.83729
   C       -2.66895         8.05485        -2.25464
   O       -2.15787         7.23760        -2.98759
   N       -3.16173         9.29575        -2.71137
   C       -2.99905         9.70302        -4.08524
   C       -1.81756        10.65432        -4.25998
   C       -3.75432        10.02461        -1.70775
   C       -4.30686        11.31218        -1.87486
   C       -4.88592        11.97884        -0.83356
   C       -5.41286        13.27768        -0.90683
   S       -5.32810        14.25191        -2.33196
   C       -6.12280        15.59418        -1.56393
   C       -6.45754        15.27349        -0.21728
   C       -6.04720        13.96381         0.15691
   C       -6.28545        13.48171         1.45024
   C       -6.93114        14.29304         2.35951
   C       -7.18644        13.82819         3.67117
   N       -7.38901        13.44142         4.73026
   C       -7.34797        15.60248         1.98783
   C       -8.01004        16.41111         2.94235
   N       -8.54797        17.05789         3.71957
   C       -7.11266        16.08689         0.71727
   C       -6.39769        16.83287        -2.14149
   C       -6.12003        17.31901        -3.39954
   C       -6.44169        18.64840        -3.87603
   C       -7.09165        19.64589        -3.19088
   C       -7.36735        20.92096        -3.72657
   N       -7.62513        21.97571        -4.10001
   C       -7.57602        19.55599        -1.87053
   N       -7.99642        19.55207        -0.80061
   C       -5.94517        18.75573        -5.24545
   C       -5.33987        17.51734        -5.60570
   C       -5.43610        16.58980        -4.47072
   O       -5.02349        15.44018        -4.43424
   C       -4.77971        17.31458        -6.83339
   C       -4.79769        18.36441        -7.77926
   C       -5.39991        19.60651        -7.42815
   C       -5.97351        19.78523        -6.14714
   C       -5.41129        20.64755        -8.37777
   C       -4.85481        20.47207        -9.61599
   C       -4.26239        19.24857        -9.96067
   C       -4.23447        18.21675        -9.06154
   H        0.10360         1.26857         5.89856
   H        2.79234        -1.66640         2.89620
   H        3.60007        -2.89317         4.81808
   H        3.65803        -3.26339         7.25199
   H        2.33292        -1.83474         8.75848
   H        0.94030        -0.02069         7.84253
   H        0.72045         2.32332        -0.23118
   H       -2.29000         2.98522         1.85796
   H       -3.57731         5.02981         1.68605
   H        2.29316         8.17760        -2.03100
   H        0.68266         8.92818        -1.95461
   H        1.13919         7.92136        -3.34117
   H        2.74582         4.27781        -2.53175
   H        3.30669         5.94548        -2.29686
   H        2.18852         5.57550        -3.60767
   H       -3.40788         8.56449         3.29866
   H       -2.83807         6.91275         2.95283
   H       -5.73209         7.92455         2.90682
   H       -5.02853         6.85896         4.12684
   H       -5.26659         6.27781         2.47384
   H       -3.92400        10.16292        -4.44372
   H       -2.81773         8.78515        -4.65192
   H       -1.95762        11.56262        -3.67826
   H       -1.71382        10.92354        -5.30740
   H       -0.90133        10.16973        -3.93187
   H       -4.25868        11.78023        -2.84804
   H       -4.93814        11.48454         0.12668
   H       -5.96944        12.49120         1.74013
   H       -7.44167        17.08515         0.46970
   H       -6.90263        17.51741        -1.47471
   H       -4.32712        16.36574        -7.08086
   H       -6.42051        20.73842        -5.91469
   H       -5.86869        21.58806        -8.10782
   H       -4.86848        21.27606       -10.33644
   H       -3.82810        19.12704       -10.94172
   H       -3.77942        17.27205        -9.32143
*
