# ORCA input file
# SCF done       -228.190734389633          0.000734277392
! CAM-B3LYP def2-SVP def2/J RIJCOSX Grid4 TightSCF
%maxcore 5000
%tddft
    Mode sTDDFT
    Ethresh 5.0
    maxcore 5000
end

%pal
  nprocs 6
  end
* xyz 0 1
   C        3.59083         2.59692        -3.29783
   C        4.66493         3.34017        -2.89181
   C        6.00154         2.89472        -2.97194
   N        7.10429         2.58251        -3.02110
   C        4.55222         4.59792        -2.26603
   N        4.50671         5.60017        -1.70689
   C        3.61647         1.20522        -3.71902
   C        2.29756         0.66878        -3.61576
   C        2.03081        -0.63740        -3.91287
   C        3.08485        -1.47685        -4.33723
   C        4.40066        -0.94142        -4.45948
   C        4.64929         0.41356        -4.14480
   C        5.44155        -1.78968        -4.88910
   C        5.19838        -3.10440        -5.18045
   C        3.90362        -3.63107        -5.05803
   C        2.86961        -2.83478        -4.64586
   C        1.37206         1.72329        -3.17623
   O        0.19691         1.64133        -2.90764
   C        2.19310         2.97321        -3.16964
   C        1.59131         4.18117        -3.17661
   C        2.16314         5.46165        -3.47355
   C        2.91584         5.85468        -4.56158
   N        3.38576         5.07546        -5.63596
   O        3.90301         5.66332        -6.56735
   O        3.26013         3.86028        -5.58126
   C        3.13013         7.28483        -4.50878
   C        2.50507         7.77554        -3.41733
   C        1.87539         6.68705        -2.70991
   C        1.29268         6.71297        -1.46445
   C        1.20850         5.59525        -0.57046
   C        0.91365         6.04566         0.67811
   C        0.71353         7.46311         0.62478
   N        0.33542         8.20888         1.75430
   O        0.24069         7.61196         2.81130
   O        0.12890         9.40903         1.63020
   C        0.88618         7.90556        -0.68935
   C        0.59060         9.20221        -1.14497
   C        0.25192         9.54831        -2.42525
   C       -0.09745        10.82578        -2.90471
   N       -0.10480        12.04880        -2.27577
   C        0.35270        12.40267        -0.94930
   C        1.87331        12.34817        -0.83515
   C       -0.56676        13.07446        -3.13148
   O       -0.66292        14.23470        -2.80366
   C       -0.86065        12.39713        -4.37867
   C       -0.55715        11.03934        -4.21624
   C       -0.84658        10.36928        -5.46693
   O       -0.73344         9.21597        -5.81558
   N       -1.32253        11.40201        -6.31628
   C       -1.75378        11.08482        -7.65680
   C       -3.27046        10.93093        -7.74213
   C       -1.34712        12.61233        -5.67473
   C       -1.76837        13.89322        -6.11258
   C       -2.30773        14.29631        -7.28913
   C       -2.70589        15.65096        -7.48358
   O       -2.53259        16.56786        -6.48246
   C       -3.04187        17.71407        -6.97116
   C       -3.51540        17.44432        -8.29451
   N       -3.27065        16.12686        -8.55493
   C       -4.11450        18.42245        -9.07328
   C       -4.21773        19.66377        -8.46425
   C       -3.73687        19.90336        -7.13732
   C       -3.13092        18.94326        -6.35068
   O       -4.00243        21.18552        -6.83992
   C       -4.61420        21.69034        -7.96549
   N       -4.75726        20.82809        -8.92132
   C       -5.06900        23.03967        -7.87358
   C       -5.44164        23.85774        -8.88485
   C       -5.99105        25.19861        -8.72051
   C       -6.51141        25.72427        -7.56886
   C       -7.06588        27.01954        -7.47220
   N       -7.52436        28.06107        -7.32494
   C       -6.60539        25.05232        -6.33049
   N       -6.73643        24.57245        -5.29608
   C       -5.97551        25.84958       -10.02160
   C       -5.51451        24.91669       -10.99395
   C       -5.19149        23.63020       -10.34737
   O       -4.75412        22.64376       -10.88270
   C       -5.40542        25.24857       -12.31411
   C       -5.75913        26.55153       -12.72997
   C       -6.21155        27.49398       -11.76073
   C       -6.31315        27.12325       -10.40151
   C       -6.55440        28.79450       -12.18504
   C       -6.45835        29.14807       -13.50315
   C       -6.01497        28.21904       -14.45688
   C       -5.67328        26.94879       -14.07893
   H        1.02735        -1.02685        -3.82495
   H        5.65015         0.79927        -4.25978
   H        6.43671        -1.38006        -4.98030
   H        6.00273        -3.74660        -5.50646
   H        3.72977        -4.67069        -5.29201
   H        1.87087        -3.23507        -4.54973
   H        0.52356         4.17718        -2.97056
   H        3.71353         7.81623        -5.23563
   H        2.54938         8.78540        -3.06276
   H        1.46459         4.58729        -0.82887
   H        0.83504         5.46938         1.58067
   H        0.53168         9.93946        -0.35922
   H        0.17176         8.77579        -3.17988
   H       -0.12928        11.77325        -0.19819
   H        0.01650        13.43242        -0.79443
   H        2.25602        11.35496        -1.05697
   H        2.16820        12.61347         0.17564
   H        2.32489        13.05562        -1.52667
   H       -1.27967        10.13075        -7.90637
   H       -1.38842        11.84892        -8.34622
   H       -3.59275        10.10453        -7.11351
   H       -3.56028        10.71907        -8.76726
   H       -3.77841        11.83441        -7.41295
   H       -1.63883        14.64768        -5.34466
   H       -2.49597        13.65358        -8.13227
   H       -4.47387        18.23723       -10.06944
   H       -2.77403        19.13043        -5.35306
   H       -5.09105        23.40241        -6.85337
   H       -5.05499        24.52262       -13.03256
   H       -6.65030        27.86096        -9.69080
   H       -6.89689        29.50495       -11.44713
   H       -6.72386        30.14578       -13.81880
   H       -5.94523        28.51561       -15.49266
   H       -5.33109        26.23005       -14.80890
*
