# ORCA input file
# SCF done       -219.047465375078          0.000917737167
! CAM-B3LYP def2-SVP def2/J RIJCOSX Grid4 TightSCF
%maxcore 5000
%tddft
    Mode sTDDFT
    Ethresh 5.0
    maxcore 5000
end

%pal
  nprocs 6
  end
* xyz 0 1
   C        4.04346         2.05038        -0.08239
   C        4.91575         2.27883         0.94383
   C        5.82968         1.32307         1.43747
   N        6.59189         0.58519         1.87427
   C        5.03388         3.51719         1.61091
   N        5.18963         4.51503         2.15597
   C        3.92274         0.83308        -0.87233
   C        2.95947         1.03635        -1.90695
   C        2.65427         0.05638        -2.80860
   C        3.30552        -1.19336        -2.71595
   C        4.26461        -1.40610        -1.68269
   C        4.56206        -0.37469        -0.76407
   C        4.90623        -2.65879        -1.59891
   C        4.61640        -3.65421        -2.49193
   C        3.67274        -3.44363        -3.50881
   C        3.03120        -2.23968        -3.61866
   C        2.40883         2.39198        -1.80025
   O        1.58148         2.93964        -2.49565
   C        3.08006         3.00088        -0.61738
   C        2.69468         4.20564        -0.15732
   C        1.64147         4.97364        -0.79704
   C        0.34628         4.98554        -0.34091
   N       -0.10247         4.20256         0.73050
   O        0.73522         3.51767         1.30653
   O       -1.27846         4.25417         1.03333
   C       -0.46189         5.86231        -1.16167
   C        0.35072         6.43658        -2.07202
   C        1.70413         5.94040        -1.89147
   C        2.82541         6.28127        -2.61118
   C        4.01929         5.49920        -2.74171
   C        4.74047         5.96931        -3.79388
   C        4.09240         7.13580        -4.31776
   N        4.66505         7.92753        -5.33111
   O        4.21101         9.04127        -5.53157
   O        5.60532         7.44924        -5.94197
   C        2.93921         7.39472        -3.58166
   C        2.14343         8.55349        -3.66165
   C        1.49277         9.10697        -2.59141
   C        0.74528        10.29388        -2.68487
   N        0.26430        10.99006        -1.59700
   C        0.45270        10.64682        -0.20702
   C        1.85105        11.00998         0.28492
   C       -0.38913        12.16734        -1.97319
   O       -0.87841        12.95300        -1.18187
   C       -0.33079        12.16741        -3.42052
   C        0.35546        11.00750        -3.82615
   C        0.37511        10.98035        -5.27733
   O        0.80068        10.17193        -6.06912
   N       -0.27641        12.17474        -5.65193
   C       -0.48537        12.50444        -7.04229
   C       -1.90839        12.18694        -7.49368
   C       -0.70565        12.88893        -4.56618
   C       -1.36952        14.13232        -4.64527
   C       -1.77563        14.80739        -3.53266
   C       -2.42971        16.05899        -3.58895
   O       -2.71025        16.60925        -4.78528
   C       -3.37128        17.77931        -4.57950
   C       -3.53515        17.97258        -3.21271
   C       -2.92811        16.88659        -2.56948
   C       -2.88689        16.72961        -1.09229
   O       -3.81726        17.09593        -0.41701
   C       -1.62955        16.14782        -0.51326
   C       -3.75483        18.45580        -5.76207
   C       -4.34475        19.66934        -5.94693
   C       -4.72553        20.20642        -7.24676
   C       -4.73828        19.53803        -8.44371
   C       -5.15165        20.11459        -9.66460
   N       -5.47123        20.51458       -10.69181
   C       -4.37353        18.19101        -8.65219
   N       -4.10249        17.10541        -8.91290
   C       -5.15438        21.58520        -7.05127
   C       -5.10661        21.88297        -5.65985
   C       -4.62644        20.70781        -4.91698
   O       -4.47032        20.63025        -3.71845
   C       -5.46156        23.10656        -5.16875
   C       -5.88535        24.11179        -6.06578
   C       -5.92635        23.82638        -7.46150
   C       -5.55537        22.54901        -7.93949
   C       -6.34301        24.83922        -8.34934
   C       -6.70443        26.07371        -7.88263
   C       -6.66609        26.35254        -6.50825
   C       -6.26530        25.39248        -5.61895
   H        1.92269         0.23334        -3.58297
   H        5.28961        -0.56593         0.00892
   H        5.63202        -2.81591        -0.81472
   H        5.11286        -4.61011        -2.41967
   H        3.45654        -4.24037        -4.20449
   H        2.30375        -2.07208        -4.39920
   H        3.11760         4.62562         0.74724
   H       -1.52108         5.97989        -1.03979
   H        0.05629         7.09366        -2.86578
   H        4.24724         4.63036        -2.15928
   H        5.65878         5.57596        -4.18779
   H        2.15312         9.08535        -4.60648
   H        1.60549         8.65919        -1.61391
   H        0.25244         9.58102        -0.06651
   H       -0.29265        11.22068         0.35038
   H        2.61540        10.48658        -0.28511
   H        1.95177        10.74307         1.33294
   H        2.01502        12.07980         0.18209
   H        0.22451        11.89402        -7.60700
   H       -0.25155        13.55961        -7.20575
   H       -2.11171        11.12648        -7.36670
   H       -2.02275        12.43877        -8.54390
   H       -2.63821        12.75244        -6.91875
   H       -1.54821        14.56134        -5.62042
   H       -1.60828        14.38231        -2.55564
   H       -4.01928        18.80168        -2.73908
   H       -0.75536        16.43636        -1.09027
   H       -1.69505        15.06018        -0.50778
   H       -1.52794        16.47676         0.51810
   H       -3.51404        17.87743        -6.64606
   H       -5.41815        23.30346        -4.10794
   H       -5.59411        22.36839        -9.00168
   H       -6.37238        24.61961        -9.40634
   H       -7.02245        26.84264        -8.57043
   H       -6.95530        27.33186        -6.15778
   H       -6.23325        25.60120        -4.55982
*
