# ORCA input file
# SCF done       -212.679094597814          0.000336684199
! CAM-B3LYP def2-SVP def2/J RIJCOSX Grid4 TightSCF
%maxcore 5000
%tddft
    Mode sTDDFT
    Ethresh 5.0
    maxcore 5000
end

%pal
  nprocs 6
  end
* xyz 0 1
   C        1.34102        -0.48624        -0.55587
   C        0.84404        -1.65244        -0.04246
   C        1.55038        -2.87490        -0.02921
   N        2.07571        -3.89382         0.02001
   C       -0.44313        -1.80698         0.51701
   N       -1.48119        -2.01121         0.96187
   C        2.62030        -0.32185        -1.23007
   C        2.71611         1.01402        -1.71719
   C        3.80465         1.45151        -2.41706
   C        4.86417         0.55421        -2.67324
   C        4.78063        -0.78172        -2.18239
   C        3.64507        -1.20416        -1.45536
   C        5.84584        -1.66828        -2.44227
   C        6.93901        -1.25841        -3.15583
   C        7.01913         0.05607        -3.64041
   C        6.00426         0.94317        -3.40405
   C        1.50859         1.76363        -1.35313
   O        1.30014         2.94478        -1.52001
   C        0.64133         0.79073        -0.61588
   C       -0.50672         1.12151         0.01558
   C       -1.24947         2.33534        -0.21562
   C       -1.49759         2.88605        -1.46462
   C       -1.08416         2.35118        -2.68880
   N       -0.76181         1.88202        -3.68494
   S       -2.53527         4.25859        -1.39659
   C       -2.61351         4.16553         0.33755
   C       -1.91038         3.06425         0.81227
   C       -1.86756         2.59175         2.13311
   N       -1.81476         2.12476         3.18014
   C       -3.43971         5.13195         0.99453
   N       -3.34235         5.62650         2.27051
   C       -2.22790         5.53548         3.18626
   C       -0.94242         6.08904         2.57984
   C       -4.41215         6.51009         2.55847
   O       -4.53384         7.07364         3.62618
   C       -5.20610         6.53186         1.35437
   C       -4.55601         5.70505         0.40364
   C       -5.35074         5.69123        -0.80256
   O       -5.17945         5.14290        -1.87305
   N       -6.45440         6.50195        -0.49693
   C       -7.46577         6.76569        -1.49373
   C       -7.20175         8.06975        -2.24068
   C       -6.37864         7.01664         0.77781
   C       -7.37547         7.84743         1.35538
   C       -7.31010         8.24663         2.65043
   C       -8.29470         8.99706         3.35402
   S       -8.41301         8.72941         5.06200
   C       -9.78936         9.78289         5.18059
   C      -10.11386        10.31748         3.92326
   C       -9.26097         9.89380         2.90296
   C       -9.30921        10.52667         1.54562
   N       -7.93568        10.77726         1.03463
   O       -7.73802        10.53794        -0.13255
   O       -7.13578        11.24741         1.79980
   C       -9.97517        11.90365         1.66227
   C      -11.36987        11.74535         2.24925
   C      -11.33353        11.15494         3.65990
   N      -12.48010        10.18910         3.82341
   O      -12.72217         9.46167         2.89510
   O      -13.03788        10.17921         4.88934
   C      -10.46428        10.13810         6.36659
   C      -10.28829         9.69996         7.64649
   C      -11.03717        10.17323         8.79936
   C      -11.85067        11.27510         8.84918
   C      -12.54355        11.68982        10.00636
   N      -13.13190        12.07589        10.91297
   C      -12.06985        12.17175         7.78212
   N      -12.25897        12.95752         6.96529
   C      -10.70479         9.30294         9.92049
   C       -9.71169         8.37168         9.49558
   C       -9.39767         8.61033         8.08120
   O       -8.57621         8.02422         7.40039
   C       -9.18753         7.43696        10.34153
   C       -9.64352         7.38644        11.67765
   C      -10.64187         8.30764        12.10909
   C      -11.16507         9.26559        11.21010
   C      -11.09019         8.24621        13.44403
   C      -10.57661         7.32203        14.31313
   C       -9.59332         6.41657        13.88756
   C       -9.13685         6.44768        12.59751
   H        3.84900         2.46796        -2.77861
   H        3.61380        -2.21962        -1.09353
   H        5.77879        -2.67960        -2.06911
   H        7.74828        -1.94552        -3.35215
   H        7.88906         0.36176        -4.20206
   H        6.05988         1.95611        -3.77468
   H       -0.93166         0.45822         0.75952
   H       -2.08681         4.50597         3.51795
   H       -2.52254         6.13841         4.05049
   H       -0.61110         5.49086         1.73382
   H       -0.15802         6.08078         3.33107
   H       -1.09226         7.11318         2.24484
   H       -8.45113         6.77343        -1.02119
   H       -7.42062         5.92778        -2.19557
   H       -7.21474         8.92269        -1.56684
   H       -7.96296         8.21499        -3.00198
   H       -6.23064         8.02462        -2.72708
   H       -8.21928         8.10478         0.73280
   H       -6.47997         7.90489         3.25631
   H       -9.82984         9.91275         0.80263
   H      -10.04198        12.36900         0.67769
   H       -9.36227        12.53654         2.30861
   H      -11.94573        11.07455         1.60588
   H      -11.87062        12.71301         2.27086
   H      -11.46581        11.92241         4.42744
   H      -11.25183        10.86514         6.23176
   H       -8.43360         6.74571         9.99537
   H      -11.92230         9.94597        11.56612
   H      -11.84662         8.94594        13.76765
   H      -10.92549         7.28416        15.33410
   H       -9.19928         5.69425        14.58657
   H       -8.38012         5.75299        12.26381
*
