# ORCA input file
# SCF done       -194.571636507076          0.000276176744
! CAM-B3LYP def2-SVP def2/J RIJCOSX Grid4 TightSCF
%maxcore 5000
%tddft
    Mode sTDDFT
    Ethresh 5.0
    maxcore 5000
end

%pal
  nprocs 6
  end
* xyz 0 1
   C       -0.77351        -0.64041        -8.32893
   S        0.36662        -1.92124        -8.36673
   C       -0.53137        -2.81710        -7.20023
   C       -1.71098        -2.13779        -6.84660
   C       -1.82099        -0.88496        -7.50030
   C       -2.77112        -2.72033        -6.05890
   O       -3.00630        -3.89355        -5.88742
   C       -3.73052        -1.68498        -5.39627
   F       -4.63820        -1.20195        -6.25780
   F       -4.39694        -2.24668        -4.38617
   F       -3.07556        -0.62727        -4.88973
   C       -0.02931        -4.01381        -6.60861
   C        0.64323        -5.07594        -7.19746
   N        1.10393        -5.18475        -8.51508
   O        1.38354        -6.29122        -8.93251
   O        1.22183        -4.15672        -9.17357
   C        0.77169        -6.15006        -6.24937
   C        0.18301        -5.77362        -5.08898
   C       -0.30857        -4.42936        -5.23111
   C       -0.75671        -3.61673        -4.20323
   C       -0.52039        -2.22050        -4.05406
   C       -0.89203        -1.83795        -2.79460
   C       -1.45811        -2.95748        -2.11716
   N       -1.98922        -2.87829        -0.82023
   O       -1.94150        -1.79891        -0.25858
   O       -2.45093        -3.89141        -0.31269
   C       -1.42955        -4.07012        -2.96882
   C       -2.09449        -5.28839        -2.77452
   C       -2.42353        -6.14722        -3.79458
   C       -2.97195        -7.43631        -3.73906
   N       -3.36504        -8.21585        -2.67593
   C       -3.48207        -7.83292        -1.28662
   C       -4.67856        -6.91704        -1.04654
   C       -3.77858        -9.49308        -3.09096
   O       -4.17122       -10.35567        -2.33208
   C       -3.59978        -9.49058        -4.53219
   C       -3.11930        -8.22614        -4.89374
   C       -2.87851        -8.21518        -6.32551
   O       -2.42846        -7.37616        -7.06910
   N       -3.27035        -9.50915        -6.74178
   C       -3.23089        -9.88932        -8.13488
   C       -4.61361        -9.82532        -8.77705
   C       -3.69262       -10.27984        -5.69420
   C       -4.09803       -11.62635        -5.82392
   C       -4.47285       -12.37468        -4.74950
   C       -4.84847       -13.73735        -4.80773
   S       -5.22543       -14.53625        -3.29859
   C       -5.54126       -16.06542        -4.06863
   C       -5.36824       -15.94391        -5.43707
   C       -4.97891       -14.64387        -5.85283
   C       -4.81632       -14.60467        -7.30846
   O       -4.48767       -13.67278        -8.00466
   C       -5.14377       -15.99778        -7.81090
   C       -5.48913       -16.83865        -6.59450
   O       -5.79825       -18.00319        -6.61472
   C       -5.90243       -17.19829        -3.28114
   S       -6.03551       -17.04759        -1.53859
   C       -6.44189       -18.68358        -1.37791
   C       -6.48160       -19.33909        -2.59277
   C       -6.17196       -18.47997        -3.67863
   C       -6.79197       -20.74467        -2.80028
   O       -6.82299       -21.31247        -3.85898
   C       -7.10096       -21.54000        -1.49498
   F       -8.15060       -21.01943        -0.83332
   F       -7.37848       -22.81407        -1.74072
   F       -6.06154       -21.51168        -0.64066
   H       -0.62654         0.22016        -8.95102
   H       -2.65615        -0.21825        -7.38958
   H        1.27008        -7.07404        -6.47013
   H        0.17345        -6.32346        -4.16840
   H       -0.01338        -1.60490        -4.77163
   H       -0.79494        -0.86198        -2.35798
   H       -2.40858        -5.47769        -1.75791
   H       -2.26029        -5.81418        -4.81169
   H       -2.55226        -7.36390        -0.95674
   H       -3.61593        -8.76569        -0.73102
   H       -4.64220        -6.04265        -1.69138
   H       -4.67776        -6.58116        -0.01399
   H       -5.60476        -7.45219        -1.24169
   H       -2.81124       -10.89348        -8.23007
   H       -2.56271        -9.17485        -8.62329
   H       -5.29394       -10.53070        -8.30627
   H       -4.53452       -10.07291        -9.83132
   H       -5.02467        -8.82301        -8.68391
   H       -4.09236       -12.06768        -6.80953
   H       -4.48107       -11.92672        -3.76307
   H       -4.29801       -16.42636        -8.35352
   H       -5.97805       -15.97210        -8.51578
   H       -6.63066       -19.07984        -0.39938
   H       -6.15414       -18.81357        -4.70161
*
