# ORCA input file
# SCF done       -192.727750777824          0.000510484423
! CAM-B3LYP def2-SVP def2/J RIJCOSX Grid4 TightSCF
%maxcore 5000
%tddft
    Mode sTDDFT
    Ethresh 5.0
    maxcore 5000
end

%pal
  nprocs 6
  end
* xyz 0 1
   C        6.27517        -3.09206         4.30035
   C        6.52627        -4.37117         3.82056
   C        7.82156        -5.04543         4.06675
   O        8.72746        -4.64515         4.73097
   S        7.83562        -6.59747         3.18169
   C        6.17453        -6.35644         2.52041
   O        5.70199        -7.11940         1.73275
   C        5.61048        -5.10056         3.05690
   C        4.32945        -4.58235         2.74700
   C        4.12449        -3.26025         3.18560
   C        5.05495        -2.55008         3.93721
   C        4.47175        -1.21349         4.22442
   O        4.92326        -0.29938         4.83498
   O        3.23070        -1.18784         3.63436
   C        2.95227        -2.37499         2.99685
   O        1.92727        -2.56663         2.41842
   C        3.27472        -5.25543         2.04294
   C        2.99241        -6.57409         2.11624
   C        1.92551        -7.20431         1.41810
   S        1.65133        -8.90962         1.63350
   C        0.34228        -8.91252         0.49969
   C        0.13605        -7.61953        -0.00591
   C        1.02466        -6.67100         0.51741
   C       -0.85972        -7.26629        -0.93222
   N       -1.66207        -6.93959        -1.68529
   C       -0.32050       -10.13076         0.22074
   C       -1.27567       -10.30413        -0.73295
   C       -1.88540       -11.55721        -0.97536
   N       -2.81962       -11.77019        -1.96246
   C       -3.38008       -10.77638        -2.84793
   C       -4.42047        -9.90668        -2.14783
   C       -3.23672       -13.10941        -2.01255
   O       -4.04489       -13.53501        -2.81494
   C       -2.48924       -13.75843        -0.95720
   C       -1.67211       -12.78109        -0.33917
   C       -0.92922       -13.42684         0.71941
   O       -0.11471       -13.00614         1.51836
   N       -1.35523       -14.76416         0.67781
   C       -0.79614       -15.75085         1.56991
   C        0.28957       -16.58250         0.89123
   C       -2.27551       -14.98250        -0.32270
   C       -2.84814       -16.24755        -0.59851
   C       -3.71412       -16.44830        -1.62631
   C       -4.28309       -17.70387        -1.96240
   S       -5.29603       -17.83744        -3.37107
   C       -5.52070       -19.53726        -3.13326
   C       -4.84675       -19.96286        -1.98509
   C       -4.15530       -18.93015        -1.33677
   C       -4.87279       -21.26837        -1.46063
   N       -4.87679       -22.30408        -0.96794
   C       -6.30608       -20.27706        -4.06002
   C       -6.35792       -21.62321        -4.11680
   C       -7.12611       -22.38577        -5.06740
   C       -8.44248       -22.11489        -5.49495
   C       -9.30660       -21.07010        -4.90281
   O       -9.07243       -20.32998        -3.99543
   S      -10.90011       -21.08074        -5.72954
   C      -10.46747       -22.47782        -6.76413
   O      -11.22669       -22.95331        -7.55333
   C       -9.08469       -22.90182        -6.45467
   C       -8.50100       -24.03581        -7.05005
   C       -7.20888       -24.32326        -6.59169
   C       -6.56253       -23.53178        -5.64925
   C       -5.19617       -24.07470        -5.46775
   O       -4.30222       -23.69154        -4.77989
   O       -5.08372       -25.16225        -6.29836
   C       -6.23885       -25.37039        -7.01485
   O       -6.33522       -26.24221        -7.81839
   C       -9.19108       -24.82335        -8.06073
   C       -9.23535       -26.14917        -8.07480
   H        7.00007        -2.55908         4.89355
   H        2.61229        -4.60196         1.49356
   H        3.57779        -7.22495         2.74919
   H        0.99834        -5.63280         0.23902
   H       -0.01354       -10.98019         0.81805
   H       -1.57953        -9.47278        -1.34967
   H       -3.85391       -11.33370        -3.66074
   H       -2.57841       -10.15938        -3.26263
   H       -5.22117       -10.52715        -1.75268
   H       -4.84282        -9.20268        -2.85878
   H       -3.97672        -9.34503        -1.32934
   H       -1.59517       -16.38975         1.95615
   H       -0.36050       -15.19175         2.40275
   H       -0.10475       -17.11207         0.02663
   H        0.69046       -17.30761         1.59388
   H        1.09828       -15.93579         0.56033
   H       -2.56205       -17.07378         0.03519
   H       -3.98875       -15.61152        -2.25539
   H       -3.58967       -19.08925        -0.43635
   H       -6.84653       -19.67969        -4.78142
   H       -5.71323       -22.21050        -3.47797
   H       -9.73436       -24.25226        -8.80076
   H       -8.76480       -26.75217        -7.31784
   H       -9.77222       -26.67564        -8.84376
*
