# ORCA input file
# SCF done       -202.635756042773          0.000387146526
! CAM-B3LYP def2-SVP def2/J RIJCOSX Grid4 TightSCF
%maxcore 5000
%tddft
    Mode sTDDFT
    Ethresh 5.0
    maxcore 5000
end

%pal
  nprocs 6
  end
* xyz 0 1
   C       -8.99773         0.20081         5.88461
   C      -10.34373         0.40230         6.00786
   F      -10.80671         1.45822         6.68518
   C      -11.26099        -0.49731         5.42516
   F      -12.57268        -0.27480         5.56356
   C      -10.81856        -1.58581         4.72707
   C       -9.43715        -1.82155         4.58310
   C       -8.50876        -0.91239         5.17094
   C       -7.11902        -1.12793         5.03886
   C       -6.67030        -2.21931         4.34018
   C       -7.60367        -3.12537         3.76211
   C       -8.95310        -2.94130         3.87269
   C       -6.88627        -4.21762         3.08053
   O       -7.37875        -5.13981         2.47334
   C       -5.43779        -3.97270         3.36404
   C       -5.32273        -2.68668         4.04657
   C       -4.16250        -2.00780         4.28795
   C       -2.87831        -2.45525         3.90401
   N       -1.81285        -2.75512         3.60260
   C       -4.10482        -0.74623         4.92098
   N       -4.00294         0.27469         5.43357
   C       -4.45678        -4.89057         3.22482
   C       -4.57952        -6.16357         2.54063
   C       -4.01493        -7.29786         3.11903
   C       -4.15526        -8.53561         2.51427
   N       -3.50483        -9.66363         3.13273
   O       -3.20406        -9.56221         4.30142
   O       -3.28474       -10.63900         2.44328
   C       -4.84263        -8.68191         1.29992
   C       -5.32967        -7.52354         0.69133
   C       -5.20898        -6.29117         1.29698
   C       -5.08720        -9.97743         0.69135
   C       -4.88753       -10.32273        -0.60973
   C       -5.26006       -11.70209        -0.78964
   C       -5.76152       -12.15793         0.51996
   C       -5.64514       -11.12804         1.39584
   C       -6.28830       -13.41801         0.82599
   N       -6.73287       -14.44190         1.09723
   C       -5.14762       -12.45689        -1.92373
   C       -5.48993       -13.83956        -2.07319
   C       -5.20807       -14.23757        -3.35568
   C       -4.66835       -13.09205        -4.08189
   C       -4.63413       -12.02835        -3.24011
   C       -4.19772       -10.74089        -3.57671
   N       -3.84965        -9.68475        -3.86269
   C       -5.42612       -15.54028        -3.87900
   S       -6.17603       -16.73601        -2.84566
   C       -6.14539       -17.96361        -4.08691
   C       -5.54453       -17.45262        -5.21742
   C       -5.16142       -16.09525        -5.12041
   C       -4.57038       -15.65377        -6.39408
   O       -4.10166       -14.57872        -6.66974
   C       -4.65087       -16.84617        -7.33529
   C       -5.24241       -18.00184        -6.54562
   O       -5.41000       -19.12929        -6.92989
   C       -6.62261       -19.28932        -3.88625
   C       -7.61169       -19.69507        -3.05605
   C       -7.70204       -21.12843        -2.63124
   O       -7.14028       -22.06685        -3.13688
   C       -8.56095       -21.11158        -1.43032
   C       -8.85829       -22.13497        -0.57597
   C       -9.69412       -21.88154         0.53437
   C      -10.19856       -20.56460         0.74715
   C      -11.02445       -20.31823         1.86252
   C      -11.34031       -21.33218         2.72254
   C      -10.84378       -22.63495         2.50958
   C      -10.03745       -22.90496         1.43956
   F      -11.16996       -23.60803         3.36852
   F      -12.12749       -21.09847         3.77876
   C       -9.87880       -19.52568        -0.15556
   C       -9.08055       -19.79906        -1.23420
   C       -8.63183       -18.95418        -2.33433
   C       -9.25405       -17.81531        -2.76621
   C       -8.94732       -17.17637        -3.98663
   N       -8.74721       -16.65085        -4.98703
   C      -10.33189       -17.20751        -2.08735
   N      -11.20628       -16.67580        -1.56957
   H       -8.31012         0.89940         6.33521
   H      -11.53289        -2.26448         4.28796
   H       -6.44151        -0.42818         5.50099
   H       -9.63982        -3.64297         3.42410
   H       -3.50142        -4.71618         3.70495
   H       -3.47439        -7.23479         4.05244
   H       -5.83606        -7.61164        -0.25723
   H       -5.58666        -5.41384         0.79802
   H       -4.46300        -9.70311        -1.37474
   H       -5.94314       -11.13458         2.42820
   H       -5.89736       -14.45589        -1.29566
   H       -4.35846       -13.11522        -5.10989
   H       -3.66844       -17.09681        -7.74110
   H       -5.28718       -16.60750        -8.19111
   H       -6.09574       -20.06498        -4.43495
   H       -8.46218       -23.12453        -0.74561
   H      -11.41477       -19.32800         2.03810
   H       -9.66543       -23.90665         1.29160
   H      -10.26168       -18.53514         0.03222
*
