# ORCA input file
# SCF done       -241.429092725279          0.000623001868
! CAM-B3LYP def2-SVP def2/J RIJCOSX Grid4 TightSCF
%maxcore 5000
%tddft
    Mode sTDDFT
    Ethresh 5.0
    maxcore 5000
end

%pal
  nprocs 6
  end
* xyz 0 1
   C       -6.23005        -0.64672         6.08586
   C       -6.50508        -0.92388         7.39564
   F       -6.52415         0.05935         8.30178
   C       -6.77260        -2.24567         7.80931
   F       -7.03921        -2.48650         9.09788
   C       -6.76057        -3.27182         6.90662
   C       -6.48079        -3.01813         5.54947
   C       -6.21127        -1.68231         5.12961
   C       -5.93407        -1.40338         3.77252
   C       -5.92837        -2.42691         2.86021
   C       -6.19319        -3.76011         3.29029
   C       -6.46248        -4.05906         4.59609
   C       -6.12095        -4.66840         2.13731
   O       -6.25180        -5.87337         2.12005
   C       -5.83125        -3.80151         0.96446
   C       -5.70758        -2.42493         1.41799
   C       -5.45887        -1.33307         0.63656
   C       -5.33890        -1.37531        -0.77039
   N       -5.27609        -1.34564        -1.91531
   C       -5.32384        -0.01752         1.13242
   N       -5.20164         1.06790         1.48225
   C       -5.67875        -4.32691        -0.27095
   C       -5.81693        -5.74440        -0.51671
   C       -4.74405        -6.55350        -0.78712
   N       -3.42152        -6.08253        -0.84247
   O       -2.53858        -6.86795        -1.11661
   O       -3.25158        -4.89305        -0.60478
   C       -5.16703        -7.93478        -0.85137
   C       -6.49534        -7.97109        -0.61617
   C       -6.99533        -6.62266        -0.43532
   C       -8.28041        -6.19182        -0.21382
   C       -8.67163        -4.81894        -0.00593
   C       -9.86284        -4.78934         0.63601
   C      -10.31944        -6.14230         0.81343
   N      -11.54570        -6.45235         1.42329
   O      -12.16850        -5.53397         1.92548
   O      -11.91985        -7.61733         1.43200
   C       -9.42676        -7.02057         0.20871
   C       -9.64683        -8.41107         0.05102
   C       -9.34179        -9.10955        -1.07800
   C       -9.61162       -10.47151        -1.34489
   N       -9.87460       -11.49760        -0.47184
   C       -9.91325       -11.46956         0.97325
   C      -11.32652       -11.24073         1.50517
   C      -10.08266       -12.71602        -1.14711
   O      -10.29280       -13.76923        -0.58212
   C       -9.95290       -12.38267        -2.55173
   C       -9.64188       -11.01382        -2.63552
   C       -9.53433       -10.65465        -4.03692
   O       -9.27727        -9.60963        -4.58845
   N       -9.81486       -11.86043        -4.71791
   C       -9.75466       -11.94407        -6.15870
   C       -8.44598       -12.56966        -6.63282
   C      -10.05605       -12.89313        -3.85305
   C      -10.36981       -14.21090        -4.26273
   C      -10.47099       -15.23837        -3.37866
   C      -10.75502       -16.55970        -3.79907
   O      -10.69222       -17.57527        -2.90293
   C      -11.09121       -17.09574        -5.03268
   C      -11.32890       -16.77561        -6.44569
   O      -11.28748       -15.72194        -7.02734
   N      -11.62531       -18.00568        -7.01695
   C      -11.59869       -19.09515        -6.14561
   O      -11.82959       -20.23201        -6.44674
   C      -11.24603       -18.48684        -4.85050
   C      -10.96211       -18.75361        -3.52430
   C      -10.91541       -19.98461        -2.81400
   C      -10.27788       -20.22698        -1.64317
   C      -10.63197       -21.43508        -0.83126
   O      -11.25886       -22.39410        -1.20527
   C      -10.10190       -21.15433         0.51702
   C      -10.24657       -21.88434         1.66260
   C       -9.65985       -21.41139         2.85739
   C       -8.94384       -20.17804         2.84630
   C       -8.36811       -19.70824         4.04411
   C       -8.49079       -20.43163         5.19700
   C       -9.19514       -21.65361         5.20617
   C       -9.76865       -22.13364         4.06205
   F       -9.29772       -22.34068         6.34960
   F       -7.94125       -19.98608         6.33234
   C       -8.80594       -19.44586         1.64576
   C       -9.36598       -19.93378         0.49498
   C       -9.32826       -19.43837        -0.87663
   C       -8.38589       -18.58734        -1.38365
   C       -8.18936       -18.36694        -2.76390
   N       -7.96487       -18.19900        -3.87655
   C       -7.43590       -17.90619        -0.59277
   N       -6.65725       -17.31377         0.00592
   H       -6.02821         0.36997         5.78676
   H       -6.96737        -4.27706         7.23882
   H       -5.73410        -0.38338         3.48649
   H       -6.66097        -5.07690         4.89556
   H       -5.37920        -3.71093        -1.11044
   H       -4.49730        -8.75429        -1.02704
   H       -7.09897        -8.85377        -0.57583
   H       -8.09408        -3.97011        -0.31244
   H      -10.42076        -3.93058         0.95794
   H      -10.24832        -8.86953         0.82190
   H       -8.94451        -8.57659        -1.93398
   H       -9.21743       -10.71031         1.33594
   H       -9.56696       -12.45338         1.30575
   H      -11.74405       -10.29388         1.17090
   H      -11.30921       -11.24427         2.59131
   H      -11.97776       -12.04291         1.16736
   H       -9.82726       -10.91641        -6.52451
   H      -10.60900       -12.51616        -6.52838
   H       -7.60046       -11.98025        -6.28631
   H       -8.42950       -12.59705        -7.71818
   H       -8.34242       -13.58521        -6.25805
   H      -10.51897       -14.39895        -5.31678
   H      -10.31071       -15.08635        -2.31944
   H      -11.83184       -18.11012        -8.00075
   H      -11.48963       -20.79699        -3.24424
   H      -10.79896       -22.81155         1.65613
   H       -7.82221       -18.77780         4.05334
   H      -10.30413       -23.06978         4.08624
   H       -8.26723       -18.51188         1.66487
*
