# ORCA input file
# SCF done       -186.290313110304          0.000338168278
! CAM-B3LYP def2-SVP def2/J RIJCOSX Grid4 TightSCF
%maxcore 5000
%tddft
    Mode sTDDFT
    Ethresh 5.0
    maxcore 5000
end

%pal
  nprocs 6
  end
* xyz 0 1
   C       -1.34018         0.20577         5.98119
   S       -0.55169        -1.31687         5.80068
   C        0.71167        -0.88583         6.94275
   C        0.48609         0.38012         7.40307
   C       -0.67069         0.99746         6.85840
   C       -0.78786         2.34846         7.44819
   O       -1.60996         3.20671         7.27841
   N        0.31829         2.44779         8.28435
   C        1.14728         1.33105         8.31250
   O        2.17596         1.23863         8.92557
   C        1.74698        -1.80313         7.31902
   C        2.13006        -2.15334         8.59284
   N        1.57749        -1.72409         9.82330
   O        2.15904        -2.06154        10.83455
   O        0.54097        -1.08706         9.80260
   C        3.15968        -3.16787         8.51860
   C        3.36116        -3.48537         7.21929
   C        2.52868        -2.63941         6.40141
   C        2.56289        -2.49466         5.03065
   C        2.28961        -1.29114         4.31172
   C        2.65977        -1.46824         3.01408
   C        3.12160        -2.81046         2.82690
   N        3.53413        -3.22333         1.54802
   O        4.18169        -4.25355         1.42213
   O        3.23757        -2.50171         0.61212
   C        3.04428        -3.49573         4.05107
   C        3.09383        -4.85330         4.40538
   C        3.49560        -5.91257         3.62677
   C        3.45141        -7.23726         4.08128
   N        3.84432        -8.31007         3.32027
   C        4.38614        -8.26171         1.98034
   C        5.85365        -7.84501         1.97440
   C        3.70973        -9.52496         4.00394
   O        3.99229       -10.60486         3.53136
   C        3.17825        -9.14829         5.30479
   C        3.02717        -7.75519         5.32457
   C        2.49657        -7.38060         6.62301
   O        2.19059        -6.30499         7.09515
   N        2.36957        -8.59734         7.31138
   C        1.91233        -8.63284         8.68109
   C        3.07437        -8.76473         9.66199
   C        2.76597        -9.66841         6.54794
   C        2.72396       -11.00574         6.97706
   C        3.08529       -12.04977         6.16750
   C        3.04286       -13.40871         6.53597
   C        3.35057       -14.46673         5.69601
   C        3.20694       -15.69002         6.40577
   C        2.77014       -15.32169         7.76685
   C        2.66840       -13.96972         7.82922
   C        2.42314       -16.18737         8.81416
   N        2.09011       -16.83817         9.69880
   C        3.42492       -16.96501         5.93402
   C        3.41244       -18.18305         6.67729
   C        3.65473       -19.22743         5.81519
   C        3.81619       -18.68729         4.47220
   C        3.70355       -17.33603         4.53234
   C        3.79576       -16.47554         3.43209
   N        3.87676       -15.80440         2.50378
   C        3.74002       -20.61076         6.12641
   S        3.80388       -21.81534         4.84766
   C        3.86343       -23.12159         5.96327
   C        3.84203       -22.66417         7.24329
   C        3.77356       -21.24999         7.34528
   C        3.80743       -20.88942         8.77330
   O        3.81363       -19.81651         9.31424
   N        3.86048       -22.11477         9.43201
   C        3.88629       -23.23205         8.60736
   O        3.93751       -24.37268         8.97781
   H       -2.23990         0.40923         5.43556
   H        0.50130         3.27063         8.84156
   H        3.64664        -3.57341         9.38427
   H        4.09926        -4.16340         6.84055
   H        1.97793        -0.36675         4.75635
   H        2.63799        -0.74022         2.22485
   H        2.74191        -5.07635         5.40369
   H        3.87433        -5.73426         2.63250
   H        3.79120        -7.57754         1.37122
   H        4.28823        -9.27409         1.57935
   H        5.97483        -6.83575         2.35936
   H        6.23137        -7.87193         0.95678
   H        6.44119        -8.52914         2.58216
   H        1.19829        -9.45108         8.80614
   H        1.39419        -7.68550         8.85287
   H        3.63714        -9.67870         9.48489
   H        2.69473        -8.77877        10.67954
   H        3.74804        -7.91809         9.55621
   H        2.37551       -11.20028         7.98083
   H        3.42344       -11.84174         5.16025
   H        3.66578       -14.37547         4.67488
   H        2.35958       -13.40645         8.68987
   H        3.26420       -18.26115         7.73673
   H        4.00244       -19.27961         3.59521
   H        3.91237       -24.13153         5.60779
   H        3.88842       -22.18183        10.43990
*
