# ORCA input file
# SCF done       -234.705932227988          0.000375600972
! CAM-B3LYP def2-SVP def2/J RIJCOSX Grid4 TightSCF
%maxcore 5000
%tddft
    Mode sTDDFT
    Ethresh 5.0
    maxcore 5000
end

%pal
  nprocs 6
  end
* xyz 0 1
   C       -4.83761        -5.75399         9.30174
   C       -3.74228        -5.39393         8.59417
   C       -3.88359        -4.01541         8.19030
   O       -2.81867        -3.39450         7.69526
   C       -2.68256        -1.98709         7.75496
   C       -5.14124        -3.54928         8.60054
   C       -5.76728        -4.64436         9.33966
   C       -7.02306        -4.71461         9.87963
   C       -7.52308        -5.77626        10.71062
   C       -8.80231        -5.47083        11.05906
   O       -9.68326        -6.11024        11.83096
   C       -9.26226        -7.32230        12.41679
   C       -9.18209        -4.20774        10.41324
   C       -8.12352        -3.75700         9.72491
   C       -5.68051        -2.25786         8.40729
   C       -5.56885        -1.54605         7.23470
   C       -5.88536        -0.19351         7.05611
   C       -6.05195         0.82098         8.04709
   N       -5.57900         0.83138         9.35618
   O       -5.91613         1.75930        10.07819
   O       -4.81847        -0.06332         9.72644
   C       -6.56943         1.97098         7.42340
   C       -6.74091         1.70647         6.07441
   C       -6.29760         0.40344         5.79687
   C       -6.21299        -0.20174         4.51331
   C       -5.14252        -0.97794         4.06362
   C       -5.29860        -1.25231         2.70576
   C       -6.48526        -0.67261         2.26694
   N       -6.93959        -0.77618         0.94984
   O       -6.26644        -1.43893         0.17380
   O       -7.97361        -0.20510         0.62147
   C       -7.12010        -0.01735         3.38148
   C       -8.38487         0.53536         3.34423
   C       -9.14534         0.96712         4.43091
   C      -10.32918         1.66684         4.30684
   C      -10.87666         2.20390         3.10468
   C      -11.98939         2.96026         3.38126
   O      -12.65158         3.59383         2.41035
   C      -13.58313         4.61739         2.69406
   C      -12.26917         2.85984         4.80806
   C      -11.14680         2.16283         5.40211
   C      -10.89208         2.12271         6.75893
   C      -10.15196         1.19192         7.53056
   C      -10.18191         1.60784         8.84184
   O       -9.69305         1.05383         9.93635
   C       -9.02726        -0.18167         9.80302
   C      -10.88329         2.88738         8.91861
   C      -11.33632         3.18243         7.69218
   C      -13.46588         3.08713         5.44883
   C      -13.78536         2.56500         6.71219
   C      -14.85925         2.92936         7.49168
   C      -15.36297         2.20496         8.63744
   N      -14.81145         1.07670         9.23829
   O      -13.78840         0.58364         8.76432
   O      -15.37631         0.62059        10.22087
   C      -16.54262         2.80783         9.05093
   C      -16.80788         3.90065         8.21431
   C      -15.79240         4.02027         7.27465
   C      -15.62250         5.08357         6.32405
   C      -14.46845         5.85187         6.21007
   C      -14.67871         6.87467         5.27833
   C      -15.96986         6.75592         4.77678
   N      -16.49179         7.59429         3.79190
   O      -15.74160         8.42939         3.30657
   O      -17.66256         7.46416         3.45051
   C      -16.60688         5.62402         5.40290
   C      -17.85649         5.12098         5.08330
   C      -18.36808         3.90806         5.53360
   C      -19.67654         3.48856         5.37801
   C      -20.77051         4.24478         4.90527
   C      -21.93810         3.54375         5.16630
   O      -23.20219         3.86894         4.88229
   C      -23.42134         5.08064         4.18948
   C      -21.62468         2.30441         5.81609
   C      -20.21735         2.24381         5.95517
   C      -19.45699         1.27324         6.59978
   C      -18.11936         0.89115         6.33287
   C      -17.75959        -0.06511         7.25775
   O      -16.64963        -0.77357         7.39118
   C      -15.62386        -0.60596         6.43548
   C      -18.86912        -0.25480         8.19242
   C      -19.89489         0.50438         7.77367
   C      -22.62888         1.31345         6.06675
   C      -22.43484        -0.00443         6.16643
   H       -5.02817        -6.71860         9.73016
   H       -2.87084        -5.98306         8.38134
   H       -1.60907        -1.79980         7.78173
   H       -3.15791        -1.57143         8.64565
   H       -3.10540        -1.50674         6.86939
   H       -6.94680        -6.62092        11.02996
   H      -10.10817        -7.69351        12.99184
   H       -8.40801        -7.15962        13.08027
   H       -8.98760        -8.05237        11.64988
   H      -10.15852        -3.77286        10.50560
   H       -8.08621        -2.88895         9.09880
   H       -6.24689        -1.84475         9.22892
   H       -5.28750        -2.09956         6.34890
   H       -6.75204         2.90206         7.92538
   H       -7.07405         2.41317         5.33827
   H       -4.27268        -1.23872         4.63676
   H       -4.61856        -1.80217         2.08271
   H       -8.83665         0.59626         2.36265
   H       -8.78986         0.74919         5.42406
   H      -10.46954         2.07113         2.12117
   H      -13.27503         5.22898         3.54477
   H      -14.58068         4.20450         2.87332
   H      -13.62085         5.23909         1.79963
   H       -9.77143         0.25672         7.17133
   H       -8.59211        -0.40313        10.77576
   H       -8.23947        -0.11521         9.04602
   H       -9.73330        -0.96920         9.52408
   H      -10.98142         3.45161         9.82498
   H      -11.81822         4.08839         7.38254
   H      -14.25099         3.62030         4.93482
   H      -13.18984         1.73571         7.07589
   H      -17.14357         2.48171         9.87853
   H      -17.64307         4.56861         8.31193
   H      -13.57728         5.71654         6.79404
   H      -13.97957         7.64046         4.99976
   H      -18.45365         5.71849         4.40757
   H      -17.70578         3.25439         6.07753
   H      -20.69470         5.21713         4.45852
   H      -24.49577         5.14581         4.02998
   H      -22.90560         5.08098         3.22549
   H      -23.08531         5.93754         4.77980
   H      -17.55147         1.19638         5.47572
   H      -14.73826        -1.08281         6.85142
   H      -15.41571         0.45093         6.25284
   H      -15.89934        -1.08699         5.49244
   H      -18.81170        -0.89668         9.04906
   H      -20.84482         0.63948         8.25210
   H      -23.63702         1.70832         6.10133
   H      -21.45999        -0.44846         6.05940
   H      -23.25734        -0.67684         6.33736
*
