# ORCA input file
# SCF done       -183.635198727010          0.000558182467
! CAM-B3LYP def2-SVP def2/J RIJCOSX Grid4 TightSCF
%maxcore 5000
%tddft
    Mode sTDDFT
    Ethresh 5.0
    maxcore 5000
end

%pal
  nprocs 6
  end
* xyz 0 1
   C        1.96715         6.61772         0.57046
   O        2.94690         7.64377         0.69830
   C        2.27135         8.48058        -0.23927
   C        1.21806         7.39056        -0.53605
   C       -0.17982         7.76883        -0.24873
   C       -1.19230         7.54346        -1.10026
   C       -2.57020         7.89905        -0.92915
   C       -3.18051         9.00110        -0.36297
   N       -2.62620        10.11486         0.29744
   O       -3.34206        11.09374         0.41294
   O       -1.48291        10.05721         0.71686
   C       -4.59940         8.97002        -0.65972
   C       -4.86669         7.88970        -1.42534
   C       -3.64640         7.15059        -1.61433
   C       -3.52362         5.89468        -2.16966
   C       -2.58765         4.88881        -1.76452
   C       -2.97470         3.68906        -2.28417
   C       -4.11811         3.89093        -3.11652
   N       -4.70815         2.85689        -3.86246
   O       -5.65198         3.12496        -4.59328
   O       -4.24635         1.73784        -3.73059
   C       -4.46318         5.24745        -3.10431
   C       -5.37760         5.87821        -3.96558
   C       -5.31849         7.21092        -4.28029
   C       -6.15993         7.98465        -5.09331
   N       -7.25811         7.66181        -5.85174
   C       -7.88203         6.36875        -6.02631
   C       -8.78096         6.01032        -4.84637
   C       -7.80104         8.79392        -6.48670
   O       -8.76372         8.75116        -7.22595
   C       -6.95995         9.90021        -6.06220
   C       -5.96907         9.37191        -5.23178
   C       -5.11466        10.45352        -4.77558
   O       -4.14668        10.45997        -4.04913
   N       -5.67058        11.59757        -5.37782
   C       -5.07802        12.90359        -5.19291
   C       -4.27035        13.34479        -6.40972
   C       -6.76375        11.29784        -6.14914
   C       -7.51001        12.25511        -6.85540
   C       -8.59785        11.89396        -7.60821
   C       -9.42459        12.70755        -8.40611
   C       -9.24360        13.94990        -9.03285
   N       -8.19886        14.88766        -8.94442
   O       -7.42729        14.84857        -7.99783
   O       -8.12429        15.71246        -9.83853
   C      -10.31485        14.17112        -9.95784
   C      -11.14916        13.09782        -9.94520
   C      -10.66777        12.15679        -8.97673
   C      -11.33519        11.02862        -8.54826
   C      -11.34419        10.47703        -7.22851
   C      -12.34928         9.56590        -7.14621
   C      -12.97023         9.43441        -8.44153
   N      -13.99815         8.50661        -8.69881
   O      -14.47162         8.45782        -9.82031
   O      -14.36118         7.80830        -7.76876
   C      -12.35700        10.29324        -9.33106
   C      -12.51860        10.36073       -10.74510
   C      -11.52696        10.66432       -11.60091
   C      -11.71051        10.76681       -13.06553
   O      -13.05760        10.71640       -13.52711
   C      -12.94488        11.97527       -14.18980
   C      -11.52253        12.20103       -13.65084
   C      -10.42378        12.37648       -14.63265
   C       -9.43123        13.23515       -14.47863
   H        1.39732         6.48333         1.49502
   H        2.40773         5.66504         0.26561
   H        2.91241         8.75607        -1.07968
   H        1.86573         9.37957         0.23263
   H        1.32160         6.94154        -1.52469
   H       -0.35196         8.24412         0.70443
   H       -0.98221         7.01633        -2.02423
   H       -5.28656         9.71195        -0.30043
   H       -5.83320         7.56152        -1.75332
   H       -1.80134         5.04293        -1.05136
   H       -2.52104         2.72969        -2.12090
   H       -6.09037         5.22224        -4.44248
   H       -4.50775         7.79707        -3.86543
   H       -7.11465         5.60918        -6.18726
   H       -8.48943         6.44753        -6.93245
   H       -8.22911         6.02872        -3.90945
   H       -9.18684         5.01363        -4.99026
   H       -9.60537         6.71594        -4.77772
   H       -4.41972        12.81147        -4.32474
   H       -5.86167        13.63151        -4.96951
   H       -3.51712        12.59873        -6.65197
   H       -3.77062        14.28300        -6.18828
   H       -4.91216        13.49422        -7.27386
   H       -7.21364        13.28930        -6.78577
   H       -8.87504        10.84730        -7.60630
   H      -10.41084        15.06906       -10.53910
   H      -12.08155        13.00543       -10.46605
   H      -10.74915        10.83356        -6.41122
   H      -12.66635         9.01259        -6.28247
   H      -13.47728        10.05986       -11.15021
   H      -10.51498        10.84231       -11.26165
   H      -11.08413        10.02330       -13.57950
   H      -13.70236        12.68523       -13.85021
   H      -13.00528        11.86361       -15.27624
   H      -11.46896        12.96122       -12.87115
   H      -10.46888        11.73456       -15.50268
   H       -9.36564        13.88006       -13.61765
   H       -8.64659        13.33252       -15.20829
*
