# ORCA input file
# SCF done       -188.753423428190          0.000819309022
! CAM-B3LYP def2-SVP def2/J RIJCOSX Grid4 TightSCF
%maxcore 5000
%tddft
    Mode sTDDFT
    Ethresh 5.0
    maxcore 5000
end

%pal
  nprocs 6
  end
* xyz 0 1
   C        8.26273        -0.01334         5.47974
   C        7.22418        -0.92762         5.56616
   C        7.19793        -2.12994         4.75876
   N        6.23842        -3.03853         4.97877
   C        5.28787        -2.80010         5.84734
   C        5.23559        -1.53369         6.53272
   N        6.19445        -0.66507         6.40319
   C        4.13306        -1.25597         7.38171
   N        3.22344        -1.08274         8.05497
   C        4.32873        -3.80487         6.10804
   N        3.54550        -4.61134         6.33590
   C        8.19394        -2.38694         3.77983
   C        9.26103        -1.46702         3.74040
   C        9.29106        -0.29082         4.58491
   N       10.38258         0.45048         4.35788
   S       11.25824        -0.25016         3.21724
   N       10.32628        -1.52083         2.93525
   C        8.15735        -3.53574         2.93306
   C        9.23674        -4.26886         2.49347
   C        8.74602        -5.46856         1.89385
   C        9.53840        -6.46583         1.31699
   N       10.18244        -7.29862         0.85661
   C        7.35706        -5.49152         1.98895
   C        6.94369        -4.28811         2.58997
   C        5.64869        -3.80002         2.74654
   C        4.42556        -4.58714         3.02448
   C        3.36107        -3.70307         2.99988
   C        3.85945        -2.40400         2.70030
   C        5.24120        -2.45575         2.57593
   C        3.07517        -1.24927         2.57541
   N        2.44246        -0.29602         2.48448
   C        4.45517        -5.92974         3.43094
   C        3.36345        -6.64731         3.84602
   C        3.41469        -7.98131         4.27193
   N        2.27966        -8.64693         4.68707
   C        2.61645        -9.91476         5.03388
   C        2.11992       -11.11621         5.49377
   C        3.22507       -11.99774         5.56442
   N        4.36225       -11.33015         5.15839
   C        4.02669       -10.05771         4.82273
   C        4.52200        -8.86319         4.34925
   C        3.28130       -13.34246         5.96650
   C        2.18891       -14.10811         6.27327
   C        2.19662       -15.45541         6.67822
   C        1.12906       -16.31675         6.49989
   C        1.55970       -17.63989         6.79518
   C        0.80419       -18.80856         6.64066
   N        0.23012       -19.78791         6.46806
   C        2.89362       -17.61287         7.17479
   C        3.34631       -16.27207         7.13833
   C        4.59309       -15.82986         7.56136
   C        5.84691       -16.61728         7.57695
   C        6.77022       -15.90026         8.30335
   C        6.16728       -14.67198         8.71853
   C        4.86902       -14.61436         8.23540
   C        6.80053       -13.68163         9.47893
   N        7.32354       -12.85838        10.08534
   C        6.09477       -17.80628         6.84643
   C        5.32101       -18.20579         5.80092
   C        5.33488       -19.46789         5.15219
   C        4.22521       -19.80096         4.32961
   C        4.11550       -21.07968         3.67314
   N        3.02598       -21.35856         2.92115
   C        2.07586       -20.46901         2.83509
   C        2.17597       -19.20292         3.50834
   N        3.23745       -18.90061         4.21633
   C        1.14450       -18.23721         3.42442
   N        0.32449       -17.43890         3.36147
   C        0.92857       -20.74195         2.04479
   N       -0.00594       -20.91080         1.40530
   C        5.10940       -22.04309         3.80290
   C        6.20033       -21.74115         4.61067
   C        6.31432       -20.47079         5.30108
   N        7.43043       -20.40572         6.03066
   S        8.24364       -21.78000         5.86348
   N        7.24646       -22.53670         4.87154
   H        8.25328         0.88471         6.07271
   H       10.27191        -4.02006         2.62409
   H        6.71490        -6.23403         1.55292
   H        2.32802        -3.92172         3.18997
   H        5.88220        -1.63274         2.31870
   H        5.42283        -6.40833         3.44918
   H        2.39549        -6.16724         3.86409
   H        1.37022        -8.22297         4.75864
   H        1.11059       -11.36018         5.75422
   H        5.28154       -11.73710         5.12630
   H        5.53214        -8.62353         4.08784
   H        4.26457       -13.79286         5.99276
   H        1.20646       -13.68506         6.10909
   H        0.15493       -16.05845         6.13065
   H        3.45599       -18.45344         7.53317
   H        7.79127       -16.17502         8.49053
   H        4.15125       -13.84744         8.45844
   H        6.94900       -18.40385         7.13663
   H        4.54637       -17.54616         5.43633
   H        5.01987       -22.99351         3.30566
*
