# ORCA input file
# SCF done       -197.262632884862          0.000271667206
! CAM-B3LYP def2-SVP def2/J RIJCOSX Grid4 TightSCF
%maxcore 5000
%tddft
    Mode sTDDFT
    Ethresh 5.0
    maxcore 5000
end

%pal
  nprocs 6
  end
* xyz 0 1
   C       -1.97726        -7.09208        -1.92965
   S       -1.62014        -5.63501        -1.10411
   C       -0.84927        -4.96644        -2.49101
   C       -0.88132        -5.84232        -3.55701
   C       -1.53216        -7.07833        -3.22027
   O       -1.69067        -8.09614        -4.06650
   C       -0.36778        -5.63256        -4.91344
   O       -0.32077        -6.52747        -5.72685
   O        0.03542        -4.39648        -5.25395
   C       -0.20987        -3.65774        -2.38018
   C        1.18481        -3.51579        -2.35546
   C        2.12533        -4.64497        -2.44587
   O        1.87473        -5.81234        -2.50760
   S        3.80109        -3.99957        -2.42680
   C        3.26275        -2.29086        -2.27950
   O        4.02219        -1.36630        -2.26021
   C        1.79369        -2.26314        -2.21531
   C        1.04917        -1.09032        -2.05323
   C       -0.34279        -1.23126        -2.06148
   C       -0.95475        -2.47848        -2.23843
   C       -2.42195        -2.43718        -2.30714
   O       -3.17472        -3.33326        -2.55445
   S       -2.96185        -0.74997        -2.00646
   C       -1.28674        -0.12293        -1.84604
   O       -1.04980         1.02219        -1.58536
   C        1.68562         0.22248        -1.88210
   C        1.51717         1.18832        -2.84054
   C        2.09087         2.45699        -2.64253
   C        2.01175         3.61829        -3.41233
   C        1.26088         3.76727        -4.68086
   C       -0.15051         4.34134        -4.40561
   N       -0.99956         3.28312        -3.90107
   C        1.99362         4.61773        -5.75604
   N        1.65181         4.26513        -7.11019
   C        2.74064         4.63851        -2.69300
   C        2.96537         5.93902        -2.96547
   C        3.79868         6.78637        -2.06705
   C        4.22158         6.13489        -0.79724
   C        3.97980         4.83227        -0.53503
   C        3.26459         4.04203        -1.45983
   C        2.85270         2.71083        -1.43763
   C        3.02505         1.68748        -0.48869
   C        2.45093         0.47016        -0.71144
   C        3.09176         8.10593        -1.86520
   C        3.06276         9.02905        -2.81410
   C        2.27210        10.25750        -2.77011
   C        2.49939        11.30936        -1.88074
   C        3.57630        11.30288        -0.87544
   O        4.42351        10.47621        -0.70053
   S        3.45107        12.79448         0.11099
   C        2.03009        13.41064        -0.80479
   O        1.46665        14.42156        -0.50282
   C        1.71184        12.46680        -1.88619
   C        0.67283        12.65583        -2.81323
   C        0.46893        11.60997        -3.73023
   C        1.22709        10.43860        -3.68357
   C        0.83088         9.40710        -4.65331
   O        1.27419         8.29474        -4.76065
   S       -0.47155        10.05093        -5.68355
   C       -0.47471        11.66113        -4.85808
   O       -1.11808        12.57721        -5.26955
   C       -0.18160        13.82286        -2.82651
   S        0.42228        15.45110        -2.90700
   C       -1.14432        16.09467        -2.94213
   C       -2.11271        15.12507        -2.86702
   C       -1.56010        13.80728        -2.81371
   O       -2.28730        12.69499        -2.71172
   C       -3.55567        15.32554        -2.85695
   O       -4.35035        14.40783        -2.76783
   O       -3.93788        16.59817        -2.94849
   H       -2.48314        -7.88885        -1.42531
   H       -1.22873        -7.86879        -4.90325
   H       -0.12837        -3.74933        -4.55582
   H        0.93950         0.98366        -3.72930
   H        1.10440         2.76587        -5.09910
   H       -0.58359         4.68724        -5.34911
   H       -0.05524         5.21225        -3.73698
   H       -0.70658         2.97169        -2.98040
   H       -1.96441         3.58421        -3.83770
   H        3.07267         4.48598        -5.64303
   H        1.75089         5.67385        -5.62528
   H        0.66545         4.40327        -7.29476
   H        1.89010         3.30240        -7.31802
   H        2.55170         6.43316        -3.83053
   H        4.71675         7.00802        -2.63784
   H        4.75604         6.76074        -0.09950
   H        4.31819         4.38384         0.38721
   H        3.59777         1.87074         0.40742
   H        2.55659        -0.32505         0.01101
   H        2.54198         8.22187        -0.94356
   H        3.58620         8.86528        -3.74860
   H       -1.29949        17.15283        -3.01347
   H       -3.23499        12.96198        -2.71608
   H       -4.90669        16.65760        -2.93914
*
