# ORCA input file
# SCF done       -212.795446282200          0.000607791346
! CAM-B3LYP def2-SVP def2/J RIJCOSX Grid4 TightSCF
%maxcore 5000
%tddft
    Mode sTDDFT
    Ethresh 5.0
    maxcore 5000
end

%pal
  nprocs 6
  end
* xyz 0 1
   C        6.85854        -0.05709        -0.92860
   C        6.80767         0.76778        -2.04773
   C        6.08985         2.00458        -2.00048
   N        6.03488         2.79583        -3.09745
   C        6.62781         2.38312        -4.17998
   C        7.32929         1.15378        -4.22736
   N        7.42835         0.37728        -3.19079
   C        5.39032         2.40509        -0.83358
   C        5.45465         1.55245         0.29466
   C        6.19949         0.32552         0.23544
   N        6.25336        -0.49439         1.31525
   C        5.62135        -0.13277         2.39046
   C        4.91471         1.09067         2.46190
   N        4.83841         1.89979         1.44510
   C        4.64868         3.62587        -0.90737
   C        3.65426         4.02961        -0.08141
   C        2.85905         5.19355        -0.27500
   C        2.19231         5.86009         0.72070
   C        1.65674         7.08021         0.18207
   C        0.90066         8.00964         0.90583
   N        0.29330         8.77650         1.50788
   C        2.01668         7.18370        -1.14409
   C        2.72968         6.00178        -1.50748
   C        3.06717         5.62947        -2.79382
   C        3.30176         6.52063        -3.95363
   C        3.38981         5.72490        -5.06620
   C        3.24820         4.35235        -4.66516
   C        3.07936         4.29551        -3.30001
   C        3.31625         3.25462        -5.53022
   N        3.40316         2.35997        -6.24556
   C        3.55868         7.91972        -3.93972
   C        3.97617         8.63722        -2.86877
   C        4.17337        10.05773        -2.81323
   C        4.00839        10.89526        -3.90281
   C        4.15797        12.28161        -3.75617
   C        4.03255        13.31539        -4.68526
   C        3.81612        13.17410        -6.15068
   C        2.50898        13.84824        -6.62335
   N        2.05657        13.20233        -7.83294
   C        5.04134        13.70311        -6.92212
   N        4.93172        13.38821        -8.33426
   C        4.22345        14.54633        -3.95831
   C        4.11331        15.83487        -4.33427
   C        4.38235        16.95872        -3.39423
   C        4.72352        16.53605        -2.00668
   C        4.78004        15.24476        -1.62686
   C        4.52518        14.21242        -2.56051
   C        4.47170        12.83466        -2.44800
   C        4.65919        11.96117        -1.35443
   C        4.52166        10.62354        -1.54202
   C        5.49052        17.78385        -4.02525
   C        5.26933        18.61812        -5.03889
   C        6.28220        19.39306        -5.71727
   C        7.34827        20.02852        -5.16419
   C        8.00206        20.81143        -6.19741
   C        9.13706        21.60512        -6.00750
   N       10.05296        22.28265        -5.85519
   C        7.31016        20.67123        -7.37227
   C        6.22300        19.76440        -7.14071
   C        5.36542        19.23343        -8.07962
   C        5.07778        19.75783        -9.43501
   C        4.29261        18.83118       -10.07335
   C        4.05570        17.73481        -9.17579
   C        4.67373        17.99318        -7.97046
   C        3.29780        16.59540        -9.47032
   N        2.66184        15.66468        -9.69244
   C        5.46212        21.05038        -9.87588
   C        5.40687        21.48444       -11.16152
   C        5.86260        22.75148       -11.62599
   C        5.49376        23.16155       -12.93449
   C        5.82035        24.45943       -13.44250
   N        5.45712        24.79056       -14.70199
   C        4.77662        23.93135       -15.40389
   C        4.43151        22.66398       -14.89128
   N        4.79599        22.29263       -13.69712
   C        6.52257        25.39063       -12.64475
   C        6.99842        24.93870       -11.39142
   C        6.69197        23.63438       -10.88713
   N        7.23163        23.23176        -9.71634
   C        7.95946        24.07058        -9.03360
   C        8.19377        25.38275        -9.49492
   N        7.74794        25.78581       -10.64832
   C        6.78103        26.76233       -13.01443
   C        6.21506        27.44385       -14.01043
   H        7.38217        -0.99772        -0.96954
   H        6.56603         3.02843        -5.04577
   H        7.81837         0.82501        -5.13425
   H        5.67247        -0.80196         3.23888
   H        4.42123         1.40425         3.37220
   H        4.90983         4.23023        -1.76558
   H        3.45732         3.46114         0.81776
   H        2.11043         5.56106         1.74896
   H        1.69385         7.94858        -1.82432
   H        3.57801         6.04777        -6.07338
   H        2.86802         3.41160        -2.73063
   H        3.45599         8.40372        -4.90282
   H        4.17324         8.11039        -1.94430
   H        3.75253        10.49302        -4.87074
   H        3.70996        12.11144        -6.38915
   H        2.68097        14.92878        -6.74931
   H        1.74230        13.71542        -5.85168
   H        2.74124        13.36440        -8.56703
   H        1.17070        13.58759        -8.13868
   H        5.95035        13.28621        -6.45133
   H        5.09529        14.79072        -6.82870
   H        4.96627        12.38415        -8.47588
   H        5.69354        13.80626        -8.85597
   H        3.83664        16.11257        -5.34017
   H        3.48360        17.59303        -3.35912
   H        4.92766        17.33284        -1.30733
   H        5.01806        14.98020        -0.60694
   H        4.90280        12.36369        -0.38252
   H        4.65604         9.94564        -0.71130
   H        6.48895        17.59350        -3.66207
   H        4.25857        18.75366        -5.40717
   H        7.65377        20.01046        -4.13482
   H        7.60038        21.08007        -8.32008
   H        3.87239        18.90471       -11.05817
   H        4.73536        17.31736        -7.13960
   H        5.82200        21.73314        -9.12362
   H        4.98705        20.85163       -11.93121
   H        4.51416        24.22482       -16.41166
   H        3.88157        21.94258       -15.48059
   H        8.40155        23.70465        -8.11615
   H        8.78704        26.08485        -8.92536
   H        7.49351        27.25018       -12.36201
   H        5.47420        27.00470       -14.65376
   H        6.49314        28.46648       -14.20294
*
