# ORCA input file
# SCF done       -148.365233831000          0.000366862163
! CAM-B3LYP def2-SVP def2/J RIJCOSX Grid4 TightSCF
%maxcore 5000
%tddft
    Mode sTDDFT
    Ethresh 5.0
    maxcore 5000
end

%pal
  nprocs 6
  end
* xyz 0 1
   C        9.35261        -5.15823        -1.51091
   N       10.47096        -4.94529        -0.88856
   C       11.52469        -5.44420        -1.52713
   C       11.24537        -6.08818        -2.71768
   S        9.54273        -6.04810        -3.02952
   C       12.14979        -6.70111        -3.58515
   N       12.89872        -7.20689        -4.29263
   C        8.06985        -4.75205        -1.06633
   C        6.81666        -4.96804        -1.78494
   N        5.76215        -4.52136        -1.16298
   C        6.22515        -3.97961        -0.00405
   C        7.68527        -4.09661         0.08534
   C        8.15167        -3.55296         1.33932
   S        9.70088        -3.54311         1.88838
   C        6.95362        -3.09501         2.00079
   C        5.78478        -3.38228         1.15275
   N        4.63052        -3.02047         1.77576
   C        4.99509        -2.57746         2.94555
   C        6.43997        -2.59143         3.17963
   C        7.06787        -2.14480         4.39173
   C        6.37665        -2.22241         5.58799
   C        6.99930        -1.84430         6.78814
   C        6.55854        -1.87597         8.11181
   C        5.24322        -2.31615         8.65535
   C        4.08826        -1.48497         8.07124
   N        4.35729        -0.07423         8.28256
   C        5.02512        -3.82518         8.43402
   N        6.00700        -4.55835         9.21262
   C        7.65533        -1.40548         8.92278
   C        7.78923        -1.31973        10.25982
   C        9.05520        -0.84098        10.88346
   C       10.10120        -0.40312         9.91379
   C        9.96345        -0.52938         8.57957
   C        8.76645        -1.04977         8.03418
   C        8.36284        -1.33386         6.74113
   C        9.03052        -1.23287         5.50133
   C        8.40315        -1.63696         4.36556
   C        8.70805         0.18750        11.93108
   C        8.96966         1.49294        11.82170
   C        8.63661         2.46609        12.81779
   C        7.93742         2.26012        14.08756
   N        7.77922         3.34297        14.79902
   C        8.35404         4.34154        14.07419
   C        8.90021         3.81599        12.81331
   C        9.51621         4.87677        12.05585
   S       10.26498         4.74985        10.59993
   C        9.33237         6.04736        12.87762
   C        8.61531         5.69003        14.11380
   N        8.44159         6.78119        14.90698
   C        8.99291         7.77221        14.26446
   C        9.57943         7.40075        12.97973
   C       10.23920         8.28390        12.08942
   N       10.74573         7.95708        10.94044
   C       11.30968         8.98265        10.31045
   C       11.25646        10.19076        10.97986
   S       10.43965         9.99569        12.49390
   C       11.76445        11.41973        10.55823
   N       12.18386        12.42825        10.20613
   H       12.50821        -5.32991        -1.10819
   H        6.73011        -5.44568        -2.74568
   H        4.25709        -2.19742         3.63056
   H        5.37514        -2.62317         5.59957
   H        5.25116        -2.15843         9.73805
   H        3.14546        -1.83077         8.53005
   H        4.01341        -1.64523         6.99439
   H        4.37843         0.14006         9.27406
   H        3.63428         0.49475         7.85761
   H        5.06315        -4.04925         7.35691
   H        4.03346        -4.10019         8.80397
   H        6.93910        -4.38845         8.84791
   H        5.82883        -5.55504         9.16722
   H        6.99461        -1.60444        10.93519
   H        9.46986        -1.70339        11.43644
   H       11.00696        -0.00517        10.34505
   H       10.75869        -0.23115         7.91286
   H       10.03633        -0.84278         5.46647
   H        8.90282        -1.57323         3.41278
   H        8.19169        -0.20085        12.79778
   H        9.47240         1.87944        10.94505
   H        7.55965         1.32199        14.45402
   H        8.99330         8.76578        14.67892
   H       11.76407         8.83500         9.34734
*
