# ORCA input file
# SCF done       -201.330786234234          0.000241709374
! CAM-B3LYP def2-SVP def2/J RIJCOSX Grid4 TightSCF
%maxcore 5000
%tddft
    Mode sTDDFT
    Ethresh 5.0
    maxcore 5000
end

%pal
  nprocs 6
  end
* xyz 0 1
   C       -4.11654         6.36259         8.91053
   C       -5.03533         5.81162         9.76872
   C       -4.86435         5.72600        11.16576
   N       -4.79447         5.62892        12.30776
   C       -6.27637         5.26090         9.39065
   N       -7.29949         4.79014         9.16310
   C       -2.81626         6.90083         9.29167
   C       -2.16160         7.38582         8.13126
   C       -0.90916         7.94811         8.16749
   C       -0.26294         8.02362         9.40542
   C       -0.92318         7.53667        10.55892
   C       -2.19487         6.97737        10.52430
   S        0.06101         7.73205        11.97544
   C        1.32191         8.44558        11.03061
   C        1.02719         8.53836         9.71545
   C       -3.03422         7.19062         6.96032
   O       -2.86890         7.63950         5.84677
   C       -4.22919         6.46954         7.46977
   C       -5.28939         6.08735         6.69785
   C       -5.27098         5.96701         5.29352
   S       -6.77473         5.96109         4.37594
   C       -6.00214         5.68113         2.83096
   C       -4.64668         5.59749         3.06103
   C       -4.24558         5.74421         4.39676
   O       -2.91008         5.51898         4.46136
   C       -2.48265         5.28433         3.19101
   O       -1.36259         5.05479         2.88300
   O       -3.52942         5.32956         2.32110
   C       -6.74129         5.53185         1.61445
   C       -8.11887         5.53184         1.63787
   C       -8.83738         5.31200         0.45006
   C      -10.20157         5.21423         0.20980
   C      -11.34609         5.31838         1.16294
   C      -11.41798         4.05975         2.04943
   N      -11.67666         2.89575         1.21941
   C      -11.34191         6.61538         2.00588
   N      -10.48727         6.53988         3.17771
   C      -10.34887         4.89115        -1.19046
   C      -11.43642         4.59270        -1.92301
   C      -11.32952         4.17389        -3.35044
   C       -9.94817         4.27126        -3.92520
   C       -8.87071         4.57585        -3.17929
   C       -9.00955         4.84897        -1.79751
   C       -8.10082         5.09976        -0.79237
   C       -6.68527         5.14513        -0.78381
   C       -6.02556         5.34771         0.38253
   C      -12.28832         4.95293        -4.20351
   C      -13.25127         4.38016        -4.93426
   C      -14.16282         5.10440        -5.76398
   S      -15.39066         4.28590        -6.69514
   C      -16.04637         5.75374        -7.40008
   C      -15.31591         6.80595        -6.89164
   C      -14.29259         6.45136        -6.00023
   O      -13.69552         7.60235        -5.57146
   C      -14.34203         8.63296        -6.17423
   O      -14.09186         9.77799        -6.02014
   O      -15.34407         8.16295        -6.98113
   C      -17.17488         5.70402        -8.24850
   C      -17.69235         6.67488        -9.04581
   C      -17.19822         7.95461        -9.50640
   C      -15.89080         8.28042        -9.75620
   C      -15.47807         9.50972       -10.31170
   N      -15.09287        10.48982       -10.76666
   C      -14.82440         7.37986        -9.57924
   N      -13.94405         6.65435        -9.44715
   C      -18.35679         8.74182        -9.91286
   C      -19.49670         7.89563        -9.94164
   C      -19.11561         6.54858        -9.48927
   O      -19.79866         5.55322        -9.42936
   C      -20.73716         8.34576       -10.32700
   C      -20.86107         9.69099       -10.68652
   C      -19.72053        10.52995       -10.63817
   C      -18.46289        10.07428       -10.25827
   S      -20.11314        12.15149       -11.11029
   C      -21.76376        11.70353       -11.36811
   C      -22.01839        10.40164       -11.11272
   H       -0.43908         8.30839         7.26572
   H       -2.65565         6.62408        11.43161
   H        2.22045         8.75627        11.52742
   H        1.68953         8.95345         8.97751
   H       -6.23303         5.84191         7.16652
   H       -8.65732         5.70423         2.55921
   H      -12.26396         5.34534         0.56518
   H      -12.18929         4.21634         2.82408
   H      -10.45540         3.91339         2.54122
   H      -12.62473         2.91996         0.85835
   H      -11.57245         2.04458         1.75901
   H      -12.38865         6.84314         2.26962
   H      -10.97374         7.42904         1.37584
   H      -10.89912         5.94820         3.89018
   H      -10.35433         7.46126         3.57694
   H      -12.43489         4.60866        -1.50904
   H      -11.63375         3.11497        -3.38844
   H       -9.86348         4.05935        -4.97967
   H       -7.88673         4.60647        -3.62374
   H       -6.14349         5.00533        -1.70719
   H       -4.94787         5.37036         0.41002
   H      -12.14697         6.02392        -4.22025
   H      -13.38834         3.30723        -4.92806
   H      -17.75542         4.78820        -8.19892
   H      -21.58554         7.67952       -10.34869
   H      -17.62337        10.74915       -10.22708
   H      -22.45306        12.45556       -11.69975
   H      -22.98594         9.94505       -11.21683
*
