# ORCA input file
# SCF done       -228.134657788457          0.000383205986
! CAM-B3LYP def2-SVP def2/J RIJCOSX Grid4 TightSCF
%maxcore 5000
%tddft
    Mode sTDDFT
    Ethresh 5.0
    maxcore 5000
end

%pal
  nprocs 6
  end
* xyz 0 1
   C       -0.86930         5.15807         0.36941
   C       -0.67146         6.50652         0.50913
   C        0.57858         7.08587         0.81608
   N        1.56041         7.62973         1.05802
   C       -1.65088         7.51415         0.40965
   N       -2.39177         8.39297         0.36587
   C        0.11777         4.12733         0.57466
   C       -0.55731         2.86271         0.49279
   C        0.13598         1.67150         0.65723
   C        1.50718         1.73482         0.90409
   C        2.15363         2.99160         0.97151
   C        1.47761         4.19215         0.80626
   S        3.85913         2.81012         1.28585
   C        3.68850         1.09206         1.32428
   C        2.42361         0.66524         1.11207
   C       -1.92410         3.10637         0.21748
   O       -2.86024         2.11223        -0.03430
   C       -2.16329         4.47706         0.11281
   C       -3.30367         5.20949        -0.15701
   N       -4.69092         4.72844        -0.05957
   C       -4.82157         3.90269         1.15433
   C       -4.48924         4.48219         2.37573
   S       -4.12220         6.20357         2.48870
   C       -5.24367         6.74058         1.23844
   C       -5.86841         7.96906         1.39830
   C       -6.73552         8.43397         0.43002
   C       -6.97535         7.66615        -0.69642
   C       -6.34595         6.44400        -0.86554
   C       -5.48196         5.96191         0.10671
   C       -4.48475         3.72962         3.54365
   C       -4.83984         2.39756         3.50704
   C       -5.21997         1.82793         2.30286
   C       -5.20381         2.56848         1.13373
   C       -5.00824         3.98535        -1.30761
   C       -6.43038         3.51994        -1.51823
   C       -7.42663         3.61740        -0.59295
   C       -8.71789         3.11804        -0.88972
   C       -9.86585         3.06967        -0.11855
   C      -10.00164         3.69529         1.23326
   C      -10.46392         5.15884         1.07097
   N      -11.77881         5.21186         0.46014
   C      -10.92769         2.94805         2.21679
   N      -10.61210         3.16367         3.61587
   C      -10.88103         2.44173        -0.93158
   C      -12.16543         2.11244        -0.68112
   C      -13.01741         1.44959        -1.69737
   C      -12.36317         1.22994        -3.02369
   C      -11.07521         1.54254        -3.25712
   C      -10.28746         2.13026        -2.24034
   C       -8.96471         2.53095        -2.19640
   C       -7.91359         2.46207        -3.13502
   C       -6.68576         2.93946        -2.79898
   C      -14.34846         2.13943        -1.89215
   C      -14.66510         3.33036        -1.39289
   N      -15.85594         4.00386        -1.63558
   C      -14.74170         6.24637        -3.37318
   C      -13.91059         5.16274        -3.61588
   S      -14.48055         3.73199        -4.48882
   C      -16.19500         3.58678        -4.02818
   C      -17.05761         3.29259        -5.07601
   C      -18.40745         3.09881        -4.86065
   C      -18.90287         3.19654        -3.57145
   C      -18.05255         3.47459        -2.51995
   C      -16.68111         3.66978        -2.71075
   C      -12.57375         5.20425        -3.24142
   C      -12.07348         6.33200        -2.61651
   C      -12.90334         7.40919        -2.34938
   C      -14.23528         7.36137        -2.72908
   C      -16.43689         4.64211        -0.46383
   C      -15.51088         5.65606         0.11290
   C      -15.19614         5.84418         1.40332
   C      -15.58612         5.13288         2.61365
   C      -16.82648         4.61120         2.89991
   C      -17.95536         4.79375         2.08025
   N      -18.90989         4.96168         1.46197
   C      -17.13472         3.94499         4.10117
   N      -17.43388         3.37995         5.05583
   C      -14.47915         5.25395         3.54236
   C      -13.58775         6.25544         3.06780
   C      -14.05159         6.73691         1.76218
   O      -13.58921         7.62435         1.07827
   C      -12.46813         6.63328         3.77000
   C      -12.19116         5.97062         4.96956
   C      -13.06917         4.95212         5.41697
   C      -14.21818         4.58999         4.72840
   S      -12.51556         4.25589         6.90515
   C      -11.14639         5.31273         6.92154
   C      -11.09737         6.15118         5.86309
   H       -0.35342         0.70818         0.60312
   H        2.01061         5.12702         0.85717
   H        4.56073         0.49430         1.50651
   H        2.13573        -0.37135         1.10146
   H       -3.23577         6.23467        -0.46438
   H       -2.42361         1.26735         0.11377
   H       -5.64757         8.55167         2.27804
   H       -7.21398         9.39275         0.54982
   H       -7.64134         8.02196        -1.46657
   H       -6.54220         5.88883        -1.76614
   H       -4.20333         4.21001         4.46727
   H       -4.83235         1.81121         4.41238
   H       -5.52012         0.79284         2.26146
   H       -5.48636         2.08086         0.21848
   H       -4.33057         3.12553        -1.32087
   H       -4.71011         4.63783        -2.13557
   H       -7.26105         4.06539         0.37602
   H       -8.99970         3.72248         1.68513
   H       -9.69272         5.70457         0.49716
   H      -10.53907         5.62863         2.05743
   H      -11.73979         4.79871        -0.46683
   H      -12.06849         6.17661         0.34759
   H      -10.86962         1.87245         2.03123
   H      -11.95410         3.28694         2.06442
   H       -9.66557         2.85682         3.81774
   H      -10.67239         4.15090         3.84063
   H      -12.62319         2.30046         0.27714
   H      -13.25820         0.45006        -1.29008
   H      -12.98378         0.80316        -3.79602
   H      -10.63062         1.36186        -4.22541
   H       -8.08938         2.02727        -4.10756
   H       -5.86750         2.88677        -3.50258
   H      -15.03844         1.61617        -2.53878
   H      -14.00441         3.86384        -0.72156
   H      -15.77601         6.21452        -3.68356
   H      -16.64645         3.22831        -6.07214
   H      -19.06270         2.87839        -5.68857
   H      -19.95358         3.04499        -3.37714
   H      -18.45874         3.51072        -1.52108
   H      -11.93858         4.35481        -3.44526
   H      -11.02905         6.36756        -2.33956
   H      -12.51991         8.28206        -1.84395
   H      -14.88308         8.20237        -2.52993
   H      -16.70516         3.88708         0.28646
   H      -17.35163         5.16265        -0.76611
   H      -15.00362         6.28535        -0.60896
   H      -11.82400         7.41842         3.40342
   H      -14.86076         3.81275         5.10765
   H      -10.45217         5.24206         7.73617
   H      -10.32101         6.87923         5.70732
*
