# ORCA input file
# SCF done       -216.533228437870          0.000931440771
! CAM-B3LYP def2-SVP def2/J RIJCOSX Grid4 TightSCF
%maxcore 5000
%tddft
    Mode sTDDFT
    Ethresh 5.0
    maxcore 5000
end

%pal
  nprocs 6
  end
* xyz 0 1
   C        9.75090        -9.66071         6.52941
   C       10.19218       -10.82588         7.09246
   F        9.34492       -11.86126         7.22084
   C       11.50809       -10.98951         7.54783
   C       12.38545        -9.94840         7.42547
   C       11.98392        -8.72382         6.85275
   C       10.64020        -8.57632         6.39866
   C       10.20892        -7.35303         5.83589
   C       11.09310        -6.31259         5.73283
   C       12.44106        -6.47208         6.17031
   C       12.88211        -7.64189         6.71992
   C       13.19110        -5.22592         5.92383
   O       14.34110        -4.97870         6.19586
   C       12.23548        -4.33905         5.19603
   C       10.91760        -4.94283         5.26219
   C        9.72135        -4.28756         5.13552
   C        9.59413        -2.88879         5.00162
   N        9.43219        -1.75244         4.98439
   C        8.46665        -4.92384         5.24698
   N        7.42597        -5.40287         5.30905
   C       12.66756        -3.24331         4.52624
   C       11.92880        -2.53386         3.53570
   C       11.04623        -3.13101         2.52550
   N       10.44557        -2.26636         1.76443
   C       10.83882        -1.04270         2.21656
   C       11.84615        -1.18657         3.28270
   C       12.16441         0.09981         3.85680
   S       13.19967         0.38877         5.09673
   C       11.30150         1.01384         3.15279
   C       10.51018         0.28223         2.13678
   N        9.59498         1.10755         1.55711
   C        9.69817         2.23865         2.19132
   C       10.72883         2.26012         3.23404
   C       10.99231         3.35652         4.12857
   C        9.92532         4.14800         4.58122
   C       10.16982         5.13323         5.50453
   C       11.47980         5.37934         5.95718
   C       12.54474         4.61903         5.48939
   C       12.29203         3.60365         4.59139
   C       11.43574         6.46145         6.91274
   C       10.09482         6.86187         7.07885
   C        9.17708         6.02153         6.22231
   C        8.34891         6.87525         5.25020
   C        9.22307         7.70615         4.31753
   C        8.27783         5.09236         7.07453
   C        7.34336         5.78196         8.05975
   C        9.77936         7.89187         7.92823
   C       10.79689         8.52227         8.66539
   C       12.13052         8.13267         8.46211
   C       12.45648         7.10994         7.59745
   C       10.50401         9.52003         9.66036
   C        9.29612         9.67364        10.25125
   C        9.01202        10.56477        11.31588
   C        9.84385        11.64441        11.87009
   N        9.33103        12.24354        12.90234
   C        8.13535        11.62084        13.13469
   C        7.89079        10.58679        12.11677
   C        6.67070         9.88670        12.39847
   S        5.98036         8.65578        11.55642
   C        6.19528        10.49521        13.61964
   C        7.11416        11.56541        14.04550
   N        6.71246        12.08911        15.23920
   C        5.68674        11.38330        15.60594
   C        5.29927        10.33671        14.64726
   C        4.22258         9.41758        14.79395
   C        3.79990         8.86093        15.95555
   C        2.44732         8.23820        16.06183
   O        1.71202         7.94775        15.14915
   C        2.19396         8.12590        17.51090
   C        1.05837         7.72077        18.15212
   C        1.03017         7.70934        19.56422
   C        2.18415         8.12827        20.28971
   C        2.14663         8.12141        21.69769
   C        1.00948         7.71119        22.33643
   C       -0.13414         7.29329        21.64132
   C       -0.11561         7.29510        20.27448
   F        0.97147         7.70301        23.67998
   C        3.34917         8.53719        19.60051
   C        3.35678         8.52888        18.23140
   C        4.40914         8.84584        17.27182
   C        5.75205         8.88875        17.53752
   C        6.75109         8.88582        16.54079
   N        7.59865         8.80472        15.77091
   C        6.29238         8.82384        18.83924
   N        6.76992         8.78898        19.88175
   H        8.72987        -9.56839         6.19353
   H       11.79864       -11.93203         7.98404
   H       13.40376       -10.05094         7.76888
   H        9.18914        -7.27036         5.49457
   H       13.90433        -7.73866         7.05377
   H       13.67657        -2.90523         4.73808
   H       10.92600        -4.18850         2.36141
   H        9.08668         3.07901         1.91035
   H        8.92293         3.94203         4.23657
   H       13.55023         4.80608         5.83380
   H       13.10203         2.99423         4.22320
   H        7.70287         7.54278         5.82133
   H        7.71042         6.21526         4.65949
   H        9.85464         8.38557         4.88621
   H        8.60129         8.29532         3.64753
   H        9.86508         7.06561         3.71643
   H        8.92890         4.41173         7.62960
   H        7.68419         4.48825         6.38496
   H        7.90191         6.27368         8.85129
   H        6.70009         5.03657         8.52190
   H        6.70692         6.51147         7.56612
   H        8.76305         8.23881         8.01886
   H       12.91045         8.63443         9.01656
   H       13.48577         6.81688         7.45663
   H       11.34049        10.11728         9.99937
   H        8.47081         9.03296         9.97129
   H       10.79375        11.96434        11.47824
   H        5.15756        11.61181        16.51539
   H        3.65498         9.17241        13.90180
   H        0.19184         7.41082        17.58747
   H        3.00992         8.43261        22.26486
   H       -1.00204         6.98017        22.19967
   H       -0.98405         6.97746        19.71741
   H        4.20579         8.85559        20.17338
*
