# ORCA input file
# SCF done       -223.952510132854          0.000494780337
! CAM-B3LYP def2-SVP def2/J RIJCOSX Grid4 TightSCF
%maxcore 5000
%tddft
    Mode sTDDFT
    Ethresh 5.0
    maxcore 5000
end

%pal
  nprocs 6
  end
* xyz 0 1
   C      -10.21004        -0.25280        11.25967
   C       -9.56693        -0.11150        12.48096
   C       -8.23713        -0.47472        12.63838
   C       -7.50340        -0.97561        11.57263
   C       -8.13350        -1.11099        10.34815
   C       -9.49343        -0.76286        10.18867
   C       -9.89602        -1.05766         8.81913
   C      -11.10235        -0.74199         8.25290
   C      -12.13795        -0.06163         8.92883
   N      -13.02158         0.48839         9.41260
   C      -11.47777        -1.00219         6.91835
   N      -11.85203        -1.17751         5.84672
   C       -8.77254        -1.74501         8.18973
   C       -7.62589        -1.57296         9.06569
   C       -6.30585        -1.57209         8.69921
   C       -5.84643        -1.75711         7.38170
   N       -5.42367        -1.89899         6.32302
   C       -5.24017        -1.27551         9.57621
   N       -4.32144        -1.03466        10.21959
   C       -8.87365        -2.48962         7.04162
   C       -8.00340        -3.49675         6.59499
   S       -8.10084        -4.10041         4.94837
   C       -6.82295        -5.26599         5.14271
   C       -6.36684        -5.22745         6.47065
   C       -7.02882        -4.23936         7.24718
   O       -6.58285        -4.24020         8.51368
   C       -5.63031        -5.21449         8.56176
   N       -4.98584        -5.42821         9.79777
   O       -4.14638        -6.30965         9.82852
   O       -5.31661        -4.72788        10.73271
   C       -5.45283        -5.84538         7.35648
   C       -6.38863        -6.00942         4.02969
   C       -5.33519        -6.87104         4.04322
   C       -4.78458        -7.56298         2.92123
   C       -3.61906        -8.28811         3.11188
   C       -2.96273        -8.88361         2.02351
   C       -1.76170        -9.58418         1.93919
   C       -0.82035        -9.99113         3.01498
   C        0.09653        -8.82245         3.45560
   N       -0.68363        -7.71131         3.96201
   C       -1.50825       -10.58097         4.26043
   N       -0.54655       -11.39791         4.97920
   C       -1.53422        -9.84143         0.53463
   C       -0.49066       -10.40271        -0.10471
   C       -0.42359       -10.45097        -1.58917
   C       -1.66715        -9.98164        -2.28865
   C       -2.71042        -9.44583        -1.63139
   C       -2.67780        -9.31340        -0.22149
   C       -3.53623        -8.73641         0.68958
   C       -4.76556        -8.05248         0.53212
   C       -5.36453        -7.48845         1.60874
   C       -0.02978       -11.79015        -2.14324
   C       -0.15156       -12.95358        -1.49253
   C        0.24386       -14.19836        -2.07360
   S        0.14496       -15.70486        -1.20370
   C        0.82679       -16.65988        -2.50213
   C        1.10965       -15.81323        -3.57874
   C        0.77962       -14.45527        -3.32089
   O        1.07632       -13.68041        -4.38449
   C        1.59134       -14.53036        -5.31441
   N        1.99102       -13.97301        -6.55348
   O        2.44423       -14.74560        -7.37489
   O        1.85046       -12.77779        -6.70216
   C        1.64005       -15.83366        -4.89116
   C        1.07445       -18.03521        -2.40049
   C        0.80725       -18.78982        -1.29366
   C        1.13102       -20.15491        -1.22386
   C        1.05972       -20.95601        -0.11243
   C        1.03914       -22.41260        -0.14021
   C        1.44868       -23.22731        -1.16196
   C        2.01881       -22.78778        -2.37558
   N        2.49232       -22.50023        -3.38131
   C        1.39560       -24.63712        -1.12026
   N        1.37932       -25.78404        -1.15442
   C        0.50107       -22.84877         1.14190
   C        0.33680       -21.71949         1.97656
   C       -0.18037       -21.85648         3.25399
   C       -0.53099       -23.12416         3.69447
   C       -0.36187       -24.23462         2.88008
   C        0.15525       -24.11043         1.59891
   C        0.82338       -20.54710         1.26379
   C        1.19893       -19.36240         1.84215
   C        0.94471       -19.02962         3.18937
   N        0.74059       -18.68278         4.26432
   C        1.98274       -18.37090         1.21357
   N        2.66301       -17.55150         0.78479
   H      -11.24679         0.02396        11.16096
   H      -10.11679         0.28029        13.32310
   H       -7.76477        -0.36971        13.60300
   H       -6.47580        -1.27184        11.70681
   H       -9.75170        -2.35083         6.42577
   H       -4.75747        -6.63969         7.18172
   H       -6.93094        -5.81987         3.11483
   H       -4.81255        -7.01999         4.97695
   H       -3.17648        -8.34495         4.09301
   H       -0.15836       -10.76692         2.61539
   H        0.74527        -8.54920         2.60762
   H        0.71985        -9.20523         4.26579
   H       -1.07981        -7.16965         3.20197
   H       -0.11262        -7.09615         4.52775
   H       -2.41305       -11.13104         3.95254
   H       -1.80244        -9.76502         4.92037
   H       -0.36514       -12.26522         4.48499
   H       -0.89006       -11.63179         5.90283
   H        0.36708       -10.79243         0.42700
   H        0.38430        -9.75328        -1.87604
   H       -1.67091       -10.08373        -3.36245
   H       -3.58020        -9.10044        -2.17055
   H       -5.20643        -7.97600        -0.45070
   H       -6.29744        -6.96270         1.48449
   H        0.34219       -11.77976        -3.15756
   H       -0.54099       -12.99685        -0.48529
   H        2.00787       -16.66335        -5.45862
   H        1.55655       -18.49630        -3.25285
   H        0.31384       -18.31318        -0.45783
   H        1.40493       -20.62097        -2.16037
   H       -0.32144       -21.00132         3.89481
   H       -0.94118       -23.24514         4.68529
   H       -0.63865       -25.21185         3.24476
   H        0.27632       -24.98348         0.97915
*
