# ORCA input file
# SCF done       -182.107976596833          0.000709078430
! CAM-B3LYP def2-SVP def2/J RIJCOSX Grid4 TightSCF
%maxcore 5000
%tddft
    Mode sTDDFT
    Ethresh 5.0
    maxcore 5000
end

%pal
  nprocs 6
  end
* xyz 0 1
   C       -5.78822         2.29407         5.54138
   C       -5.41762         3.32245         4.68740
   C       -5.39403         3.13921         3.31234
   C       -5.74959         1.92242         2.74969
   C       -6.11975         0.88872         3.59284
   C       -6.13534         1.06895         4.99451
   C       -6.53792        -0.18181         5.62773
   C       -6.76957        -0.36405         6.96627
   C       -6.65658         0.65455         7.93535
   N       -6.58340         1.43232         8.77678
   C       -7.18793        -1.56855         7.56841
   N       -7.53005        -2.50990         8.13116
   C       -6.62174        -1.17792         4.56900
   C       -6.57664        -0.46120         3.30342
   C       -7.14346        -0.87670         2.12747
   C       -7.90083        -2.06150         2.01224
   N       -8.57586        -2.98315         1.89993
   C       -7.12565        -0.12508         0.93655
   N       -7.11881         0.43401        -0.06625
   C       -6.60491        -2.53168         4.78005
   C       -6.22685        -3.57041         3.90728
   C       -6.40650        -4.92156         4.15946
   C       -5.84360        -5.77473         3.20991
   C       -5.99973        -7.25784         3.27256
   C       -5.18075        -5.07861         2.20807
   S       -5.30154        -3.36404         2.44238
   C       -4.43738        -5.57311         1.07524
   C       -3.70963        -6.73661         1.15226
   C       -2.94796        -7.15933         0.04309
   C       -2.10613        -8.25043        -0.10851
   C       -1.84717        -9.30795         0.91163
   C       -1.95952       -10.73190         0.33772
   N       -2.49885       -11.61627         1.35471
   C       -0.48660        -9.07826         1.59646
   N       -0.56165        -7.88830         2.42338
   C       -1.50883        -8.13290        -1.41913
   C       -0.54723        -8.84366        -2.03657
   C       -0.01964        -8.45604        -3.37548
   C       -0.75852        -7.32782        -4.03335
   C       -1.70913        -6.61830        -3.39935
   C       -2.08490        -6.94496        -2.07494
   C       -2.94593        -6.35696        -1.17309
   C       -3.72278        -5.17477        -1.22469
   C       -4.43150        -4.79669        -0.13350
   C        0.03248        -9.63768        -4.30243
   C        1.08289        -9.90941        -5.08273
   C        1.17115       -10.99858        -6.00580
   C        2.18968       -11.22628        -6.90558
   C        2.03604       -12.38633        -7.66858
   C        2.98629       -12.81389        -8.72946
   C        0.85819       -13.06718        -7.36479
   S       -0.03246       -12.23959        -6.10469
   C        0.49089       -14.32787        -7.87743
   C       -0.72753       -14.94889        -7.85035
   C       -0.92217       -16.39015        -7.93862
   C       -0.02188       -17.32631        -8.37522
   C        1.26542       -17.04392        -8.87637
   N        2.32286       -16.88056        -9.29508
   C       -0.27692       -18.71353        -8.41501
   N       -0.41329       -19.85166        -8.47277
   C       -2.26851       -16.65941        -7.44852
   C       -2.92680       -15.43021        -7.21472
   C       -4.22248       -15.40197        -6.72744
   C       -4.85891       -16.60756        -6.47259
   C       -4.21832       -17.81581        -6.70820
   C       -2.92133       -17.85616        -7.19822
   C       -2.03351       -14.35302        -7.60781
   C       -2.41049       -13.08760        -7.97203
   C       -3.70336       -12.56352        -7.77578
   N       -4.73228       -12.08070        -7.61574
   C       -1.56091       -12.20731        -8.67431
   N       -0.90960       -11.49728        -9.29841
   H       -5.79782         2.45546         6.60670
   H       -5.14103         4.27922         5.10353
   H       -5.09519         3.95322         2.66960
   H       -5.72380         1.78723         1.68038
   H       -6.81686        -2.87510         5.78487
   H       -6.96351        -5.26979         5.01188
   H       -5.20234        -7.70384         3.86758
   H       -5.97529        -7.69427         2.27703
   H       -6.94745        -7.50432         3.74583
   H       -3.65074        -7.29207         2.07339
   H       -2.61195        -9.22559         1.68858
   H       -0.97834       -11.06079        -0.04601
   H       -2.66415       -10.72965        -0.49868
   H       -1.87054       -11.67198         2.14902
   H       -2.62430       -12.55303         0.98848
   H        0.30288        -9.03034         0.82551
   H       -0.26392        -9.92111         2.25774
   H       -0.77400        -7.07825         1.84980
   H        0.32096        -7.71916         2.89241
   H       -0.08990        -9.71112        -1.58234
   H        1.01870        -8.11669        -3.21976
   H       -0.46162        -7.09921        -5.04507
   H       -2.19669        -5.78992        -3.89211
   H       -3.73372        -4.58059        -2.12603
   H       -5.02701        -3.89547        -0.15403
   H       -0.85829       -10.24925        -4.34524
   H        1.95818        -9.27157        -5.05305
   H        3.02861       -10.56042        -7.00637
   H        3.22609       -13.87311        -8.64583
   H        3.90464       -12.23659        -8.66800
   H        2.54025       -12.65357        -9.71093
   H        1.32522       -14.90029        -8.26171
   H       -4.72573       -14.46767        -6.53708
   H       -5.86634       -16.60330        -6.08546
   H       -4.73422       -18.74193        -6.50575
   H       -2.43998       -18.80430        -7.37281
*
