# ORCA input file
# SCF done       -188.479093031535          0.002172824546
! CAM-B3LYP def2-SVP def2/J RIJCOSX Grid4 TightSCF
%maxcore 5000
%tddft
    Mode sTDDFT
    Ethresh 5.0
    maxcore 5000
end

%pal
  nprocs 6
  end
* xyz 0 1
   C       -5.02619         9.74841         9.20044
   C       -4.72208         8.61494         8.47329
   C       -4.10940         7.51509         9.07111
   C       -3.77462         7.58694        10.43761
   C       -4.08474         8.73700        11.15918
   C       -4.71093         9.80630        10.54957
   N       -3.12431         6.52122        11.08462
   C       -2.06252         5.85536        10.47310
   C       -1.19135         6.53869         9.62134
   C       -0.18590         5.86042         8.96126
   C       -0.02025         4.49599         9.14091
   C       -0.86810         3.81376        10.00046
   C       -1.87852         4.48245        10.66305
   C       -3.53677         6.15850        12.37460
   C       -4.88799         6.19872        12.71580
   C       -5.29456         5.84005        13.98637
   C       -4.36747         5.42875        14.93061
   C       -3.02387         5.38898        14.59641
   C       -2.60604         5.75564        13.33155
   C       -3.79267         6.31493         8.31661
   C       -3.37379         6.29338         7.04667
   N       -2.90546         5.13610         6.46777
   C       -2.36533         5.01496         5.23518
   S       -2.75597         6.12901         3.96797
   C       -1.74801         5.21903         2.88038
   N       -1.62269         5.68054         1.57364
   O       -0.91186         5.04664         0.81120
   O       -2.23735         6.69630         1.28557
   C       -1.15126         4.13637         3.47130
   C       -1.47985         4.00227         4.83092
   C       -0.90444         3.06544         5.75833
   C        0.02835         2.13718         5.47631
   C        0.65004         1.37080         6.51663
   C        1.64253         0.47677         6.39356
   C        2.23761         0.00910         5.10538
   C        2.27176        -0.12392         7.63534
   N        2.31705         0.81631         8.72907
   C        1.57962         0.78321         9.85556
   C        0.85329        -0.26568        10.33499
   C        0.15348        -0.20495        11.55080
   C       -0.47422        -1.27461        12.13757
   C       -1.17893        -1.29289        13.36289
   C       -1.63075        -2.52489        13.73188
   C       -1.30614        -3.55179        12.81813
   S       -0.43578        -2.90050        11.45613
   C       -1.57400        -4.90676        12.93565
   C       -2.23705        -5.57007        13.98567
   C       -2.30935        -6.92586        13.82955
   C       -1.70564        -7.40110        12.64547
   S       -1.05151        -6.06587        11.73067
   C       -1.57333        -8.70056        12.17811
   C       -2.05849        -9.80859        12.85617
   C       -1.92234       -11.12112        12.43162
   C       -2.41233       -12.28830        13.11057
   C       -3.09891       -12.33800        14.30576
   C       -3.54327       -13.52692        14.91393
   N       -3.92942       -14.45988        15.46408
   C       -3.45175       -11.22840        15.09524
   N       -3.77428       -10.37567        15.79719
   C       -2.04475       -13.45781        12.31105
   C       -1.33183       -13.01686        11.17092
   C       -1.23322       -11.53960        11.20112
   O       -0.68579       -10.84582        10.36393
   C       -0.83472       -13.87929        10.22682
   C       -1.05457       -15.24905        10.41382
   C       -1.77477       -15.67989        11.55025
   C       -2.27665       -14.80486        12.50771
   S       -1.93701       -17.41094        11.58573
   C       -1.04141       -17.52796        10.09374
   C       -0.64341       -16.33588         9.59241
  Br       -0.71452       -19.21566         9.33951
   H       -5.51193        10.58369         8.71993
   H       -4.98948         8.55636         7.42924
   H       -3.82201         8.78477        12.20595
   H       -4.94289        10.68969        11.12449
   H       -1.31418         7.60210         9.48035
   H        0.47796         6.40161         8.30326
   H        0.76354         3.97245         8.61353
   H       -0.75572         2.74788        10.14488
   H       -2.54748         3.94207        11.31729
   H       -5.61323         6.51201        11.97839
   H       -6.34411         5.87372        14.23779
   H       -4.68955         5.14351        15.92032
   H       -2.29316         5.07892        15.32894
   H       -1.55588         5.73839        13.07826
   H       -3.82103         5.38130         8.86338
   H       -3.31204         7.17545         6.42784
   H       -2.80243         4.34442         7.09031
   H       -0.48990         3.48825         2.92701
   H       -1.20558         3.17471         6.79380
   H        0.36396         1.99453         4.46166
   H        0.28723         1.59064         7.51478
   H        1.62500         0.28302         4.25328
   H        2.34437        -1.07517         5.12021
   H        3.23201         0.43708         4.96897
   H        3.29503        -0.43801         7.40045
   H        1.71531        -1.00982         7.94702
   H        2.77251         1.68774         8.50503
   H        1.63394         1.68830        10.44805
   H        0.81409        -1.20298         9.80036
   H        0.11994         0.73959        12.07934
   H       -1.32377        -0.39551        13.93880
   H       -2.17675        -2.72314        14.63626
   H       -2.64050        -5.04171        14.83089
   H       -2.77655        -7.58335        14.54037
   H       -1.05799        -8.85235        11.24134
   H       -2.58016        -9.63869        13.78638
   H       -0.29200       -13.51082         9.37037
   H       -2.81786       -15.18613        13.35720
   H       -0.08216       -16.22393         8.68259
*
