# ORCA input file
# SCF done       -187.282186021449          0.000477265400
! CAM-B3LYP def2-SVP def2/J RIJCOSX Grid4 TightSCF
%maxcore 5000
%tddft
    Mode sTDDFT
    Ethresh 5.0
    maxcore 5000
end

%pal
  nprocs 6
  end
* xyz 0 1
   C       -2.17638        -4.63706        -1.52978
   C       -2.03944        -4.61411        -0.16650
   C       -2.00872        -5.76693         0.64714
   N       -1.96690        -6.66426         1.36123
   C       -1.91186        -3.44864         0.61853
   N       -1.80987        -2.54830         1.32356
   C       -2.35724        -5.82925        -2.34729
   C       -2.49193        -5.44215        -3.70396
   C       -2.68288        -6.34882        -4.71839
   C       -2.75559        -7.70320        -4.37806
   C       -2.61896        -8.08195        -3.01989
   C       -2.41822        -7.16594        -1.99551
   S       -2.73562        -9.80349        -2.82182
   C       -2.96536        -9.98995        -4.54027
   C       -2.95492        -8.82370        -5.22939
  Br       -3.19527       -11.70454        -5.26133
   C       -2.38465        -3.97773        -3.81425
   O       -2.29720        -3.33241        -4.83273
   C       -2.23645        -3.48414        -2.41129
   C       -2.04396        -2.18170        -2.07282
   C       -2.34844        -1.08570        -2.92267
   O       -1.70673         0.10161        -2.73377
   C       -3.29445        -0.90949        -3.91417
   C       -4.42545        -1.54505        -4.61101
   O       -4.93968        -2.62158        -4.47347
   N       -4.86370        -0.55318        -5.48539
   C       -4.19091         0.65997        -5.39626
   O       -4.43253         1.64021        -6.05592
   C       -3.19106         0.42909        -4.35177
   C       -2.18769         1.02389        -3.59981
   C       -1.65016         2.33790        -3.60785
   C       -2.09188         3.29117        -4.46072
   C       -1.56614         4.61699        -4.48348
   C       -1.96304         5.61463        -5.29644
   C       -3.01546         5.51773        -6.34653
   C       -1.27455         6.95837        -5.21815
   N       -0.33824         7.10387        -6.30759
   C       -0.60441         7.78050        -7.43714
   C        0.17346         7.73998        -8.54762
   C       -0.03205         8.52752        -9.71368
   C        0.87090         8.46113       -10.78456
   C        0.78914         9.24562       -11.95192
   N        1.76648         8.99307       -12.86655
   C        2.58004         8.09714       -12.45937
   S        2.26526         7.42382       -10.89138
   C       -0.25613        10.17846       -12.12861
   C       -1.20044        10.19750       -11.09445
   C       -1.10574         9.42635        -9.91553
   N       -2.12582         9.64251        -9.03469
   C       -2.95246        10.51504        -9.46194
   S       -2.60378        11.21383       -11.01912
   C       -0.41035        11.00639       -13.27585
   C        0.52631        11.46634       -14.14895
   C        1.96898        11.51183       -14.09867
   C        2.74371        11.58275       -12.96950
   C        4.14962        11.65423       -12.98004
   N        5.29665        11.68343       -12.92906
   C        2.21965        11.65275       -11.66443
   N        1.84674        11.75265       -10.58278
   C        2.44498        11.72117       -15.46127
   C        1.33529        12.02580       -16.28910
   C        0.09690        11.95781       -15.48465
   O       -1.03219        12.20607       -15.84234
   C        1.46991        12.31530       -17.62488
   C        2.75771        12.29151       -18.17172
   C        3.85638        11.97189       -17.33960
   C        3.72240        11.68849       -15.98579
   S        5.35307        11.98917       -18.22285
   C        4.49435        12.42490       -19.67681
   C        3.15654        12.54931       -19.51249
  Br        5.44629        12.67251       -21.27398
   H       -2.78237        -6.02039        -5.74075
   H       -2.31638        -7.50523        -0.97830
   H       -3.08252        -8.75504        -6.29419
   H       -1.64303        -1.91388        -1.10413
   H       -5.63456        -0.69863        -6.12204
   H       -0.86508         2.53820        -2.89251
   H       -2.88177         3.03764        -5.15160
   H       -0.78306         4.82282        -3.76274
   H       -3.33878         4.49825        -6.52505
   H       -2.64744         5.94094        -7.28130
   H       -3.88372         6.10515        -6.04589
   H       -0.73380         7.05719        -4.27174
   H       -2.00732         7.76516        -5.29223
   H        0.43271         6.45057        -6.32208
   H       -1.47099         8.42605        -7.41610
   H        1.04201         7.09338        -8.56211
   H        3.42211         7.76114       -13.03268
   H       -3.82257        10.82343        -8.91606
   H       -1.43498        11.27306       -13.52356
   H        0.60996        12.55320       -18.23114
   H        4.58681        11.44625       -15.39000
   H        2.47671        12.81174       -20.30240
*
