# ORCA input file
# SCF done       -223.276081025033          0.004832555089
! CAM-B3LYP def2-SVP def2/J RIJCOSX Grid4 TightSCF
%maxcore 5000
%tddft
    Mode sTDDFT
    Ethresh 5.0
    maxcore 5000
end

%pal
  nprocs 6
  end
* xyz 0 1
   C       -9.69640       -10.56569        -3.53576
   C       -8.75329       -11.16178        -4.32582
   F       -8.96343       -12.39109        -4.81330
   C       -7.55773       -10.48988        -4.64924
   F       -6.65785       -11.09702        -5.43311
   C       -7.32213        -9.22742        -4.18161
   C       -8.28756        -8.57656        -3.38976
   C       -9.49359        -9.25659        -3.05512
   C      -10.48275        -8.61534        -2.27124
   C      -10.29177        -7.31943        -1.87341
   C       -9.09792        -6.63513        -2.24567
   C       -8.10479        -7.24311        -2.95967
   C       -9.18350        -5.24999        -1.77001
   O       -8.37326        -4.34564        -1.96603
   C      -10.45368        -5.13115        -1.05885
   C      -11.13604        -6.40539        -1.10204
   C      -12.34378        -6.72012        -0.53704
   C      -13.12765        -5.81556         0.20913
   N      -13.79124        -5.10189         0.81644
   C      -12.95202        -7.98905        -0.62920
   N      -13.48969        -9.00199        -0.67320
   C      -10.86121        -3.94568        -0.48989
   N      -10.11553        -2.84063        -0.58897
   C      -10.41279        -1.61861        -0.06618
   S      -11.82849        -1.44283         0.93573
   C      -11.47207         0.23887         1.11668
   N      -12.33920         1.01766         1.90233
   O      -12.07588         2.19705         2.02823
   O      -13.29024         0.44306         2.39729
   C      -10.34801         0.63119         0.44701
   C       -9.70756        -0.42158        -0.24521
   C       -8.51658        -0.13673        -1.00878
   C       -7.69661        -0.96901        -1.67121
   C       -6.48586        -0.55940        -2.36426
   C       -5.98538        -1.29674        -3.44782
   N       -6.58993        -2.31747        -4.15547
   C       -8.02542        -2.35964        -4.35281
   C       -8.41649        -2.15946        -5.81501
   C       -5.64592        -2.85997        -5.00642
   C       -4.45305        -2.10143        -4.92465
   C       -4.67568        -1.08858        -3.92990
   C       -3.89408        -0.06006        -3.42552
   C       -4.42559         0.73919        -2.42897
   C       -5.68154         0.48229        -1.89861
   C       -3.35584        -2.40330        -5.71500
   C       -3.44401        -3.48450        -6.57659
   C       -4.57881        -4.27338        -6.61074
   C       -5.70459        -4.01678        -5.81231
   C       -6.80409        -4.93509        -5.73755
   C       -7.04552        -6.00643        -6.54235
   C       -8.13267        -6.87180        -6.32808
   C       -8.39417        -8.00362        -7.05831
   C       -9.43980        -8.93305        -6.83747
   C       -9.43639        -9.99155        -7.69469
   C       -8.40458        -9.94112        -8.65862
   S       -7.41244        -8.52882        -8.41725
   C       -8.18474       -10.81962        -9.70686
   C       -8.88236       -12.01089        -9.99636
   C       -8.48568       -12.61509       -11.15394
   C       -7.45699       -11.92774       -11.83650
   S       -6.97851       -10.51367       -10.93408
   C       -6.90805       -12.18004       -13.08120
   C       -7.23194       -13.26681       -13.88489
   C       -6.86059       -13.44771       -15.20319
   C       -6.86490       -14.80005       -15.79686
   O       -7.33541       -15.80923       -15.31506
   C       -6.13513       -14.66785       -17.07835
   C       -5.78212       -15.63517       -17.97257
   C       -5.05038       -15.27089       -19.12649
   C       -4.69663       -13.90583       -19.32646
   C       -3.96025       -13.54946       -20.47320
   C       -3.59449       -14.50331       -21.38107
   C       -3.94667       -15.85213       -21.18376
   C       -4.66018       -16.22961       -20.08074
   F       -3.57461       -16.76830       -22.09096
   F       -2.89435       -14.16091       -22.47283
   C       -5.08574       -12.92346       -18.38539
   C       -5.79960       -13.29883       -17.28084
   C       -6.36114       -12.51872       -16.17589
   C       -6.56513       -11.15646       -16.20219
   C       -7.38360       -10.45838       -15.29399
   N       -8.08097        -9.84331       -14.62117
   C       -6.07190       -10.30998       -17.21274
   N       -5.67649        -9.57095       -17.99931
   H      -10.60411       -11.09635        -3.29401
   H       -6.40408        -8.72382        -4.44022
   H      -11.37603        -9.16407        -2.02073
   H       -7.19837        -6.71348        -3.21160
   H      -11.79820        -3.86332         0.04498
   H       -9.23620        -2.96722        -1.10872
   H       -9.99701         1.64757         0.45986
   H       -8.28952         0.92104        -1.04340
   H       -7.85192        -2.03707        -1.68884
   H       -8.44915        -1.53560        -3.77371
   H       -8.44469        -3.28986        -3.95850
   H       -7.98112        -1.23638        -6.19226
   H       -9.49870        -2.08915        -5.89113
   H       -8.08070        -2.98092        -6.44219
   H       -2.89486         0.10585        -3.79661
   H       -3.84085         1.55123        -2.02454
   H       -6.02516         1.06859        -1.06019
   H       -2.45516        -1.81293        -5.65208
   H       -2.60610        -3.73637        -7.20853
   H       -4.58488        -5.14186        -7.24994
   H       -7.48868        -4.78668        -4.91561
   H       -6.40482        -6.22999        -7.38349
   H       -8.81234        -6.64553        -5.51575
   H      -10.15790        -8.78868        -6.04875
   H      -10.15326       -10.79223        -7.67120
   H       -9.65567       -12.39019        -9.35303
   H       -8.91615       -13.52230       -11.53658
   H       -6.18216       -11.46577       -13.44414
   H       -7.75687       -14.10534       -13.44240
   H       -6.05803       -16.66518       -17.80543
   H       -3.68592       -12.51966       -20.64086
   H       -4.92220       -17.26721       -19.94473
   H       -4.80012       -11.89864       -18.56074
*
