# ORCA input file
# SCF done       -191.113121241582          0.000884831069
! CAM-B3LYP def2-SVP def2/J RIJCOSX Grid4 TightSCF
%maxcore 5000
%tddft
    Mode sTDDFT
    Ethresh 5.0
    maxcore 5000
end

%pal
  nprocs 6
  end
* xyz 0 1
   C       -1.67268        -8.49425       -10.45293
   C       -0.55817        -9.04882       -11.01654
   F       -0.55878        -9.39560       -12.30914
   C        0.60482        -9.26248       -10.24793
   F        1.68194        -9.80659       -10.82774
   C        0.63660        -8.91786        -8.92592
   C       -0.49557        -8.34252        -8.31622
   C       -1.67279        -8.12753        -9.09154
   C       -2.82117        -7.55457        -8.50087
   C       -2.79450        -7.20713        -7.17456
   C       -1.61196        -7.41743        -6.41098
   C       -0.48695        -7.96897        -6.95497
   C       -1.81725        -6.94351        -5.03275
   O       -0.99283        -6.89840        -4.14874
   C       -3.21536        -6.41399        -4.99939
   C       -3.81275        -6.62131        -6.31199
   C       -5.11905        -6.39757        -6.64420
   C       -6.10442        -5.91948        -5.75179
   N       -6.95571        -5.55401        -5.07492
   C       -5.66297        -6.65090        -7.92278
   N       -6.15434        -6.83178        -8.94353
   C       -3.72968        -5.71032        -3.96622
   C       -3.13948        -5.67824        -2.64946
   C       -2.99672        -4.52305        -1.89348
   C       -3.33081        -3.23475        -2.30842
   N       -3.61413        -2.18168        -2.66870
   S       -2.24170        -4.81762        -0.35903
   C       -2.16023        -6.52696        -0.68231
   C       -2.67694        -6.81780        -1.94787
   C       -2.78649        -8.12353        -2.44805
   N       -2.90198        -9.18697        -2.86435
   C       -1.63678        -7.47565         0.21239
   C       -1.06925        -7.23628         1.43542
   C       -0.53957        -8.23002         2.30498
   C       -0.00232        -7.73973         3.45085
   C       -0.07533        -6.32824         3.55897
   S       -0.86534        -5.64984         2.14946
   C        0.39223        -5.53066         4.57813
   C        1.05294        -5.93557         5.76803
   C        1.40841        -4.90790         6.57555
   C        1.03593        -3.61916         6.08578
   S        0.23361        -3.79046         4.53162
   C        1.34540        -2.43620         6.68348
   C        0.95916        -1.12542         6.25800
   C        1.80230        -0.02700         6.40999
   C        3.09868        -0.06038         6.92170
   N        4.16464        -0.10306         7.34670
   S        1.11167         1.45030         5.83452
   C       -0.35949         0.63310         5.41201
   C       -0.27844        -0.72789         5.67472
   C       -1.42037        -1.53901         5.54387
   N       -2.38678        -2.15045         5.46359
   C       -1.46584         1.29693         4.80382
   C       -1.84495         2.58977         4.92503
   C       -2.74715         3.19350         3.89225
   O       -3.39766         2.59733         3.07177
   C       -2.59904         4.65089         4.06672
   C       -3.10350         5.65978         3.29650
   C       -2.81302         6.99808         3.64228
   C       -1.99533         7.26703         4.77947
   C       -1.70357         8.60510         5.11310
   C       -2.20319         9.62785         4.35674
   C       -3.01402         9.36095         3.23384
   C       -3.31315         8.07425         2.88310
   F       -3.48808        10.38269         2.51210
   F       -1.92665        10.89712         4.67514
   C       -1.49194         6.20346         5.56196
   C       -1.79656         4.91404         5.21479
   C       -1.46239         3.64344         5.84858
   C       -1.12259         3.47509         7.16284
   C       -1.07141         2.21260         7.79149
   N       -1.05147         1.20128         8.33325
   C       -0.87092         4.54455         8.04841
   N       -0.64131         5.38369         8.79573
   H       -2.55441        -8.33946       -11.05498
   H        1.53365        -9.08742        -8.35128
   H       -3.69384        -7.39912        -9.11445
   H        0.39508        -8.11914        -6.35131
   H       -4.62343        -5.11321        -4.09824
   H       -1.67990        -8.50490        -0.12162
   H       -0.57695        -9.27230         2.04283
   H        0.44461        -8.34529         4.21823
   H        1.24446        -6.97104         5.98390
   H        1.91702        -5.01439         7.51697
   H        2.00918        -2.47386         7.53796
   H       -2.04439         0.69957         4.10382
   H       -3.71628         5.43874         2.43596
   H       -1.08849         8.82729         5.97110
   H       -3.93444         7.88673         2.02141
   H       -0.86850         6.43233         6.41176
*
