# ORCA input file
# SCF done       -180.054633061888          0.000399360175
! CAM-B3LYP def2-SVP def2/J RIJCOSX Grid4 TightSCF
%maxcore 5000
%tddft
    Mode sTDDFT
    Ethresh 5.0
    maxcore 5000
end

%pal
  nprocs 6
  end
* xyz 0 1
   C       -3.43369         1.10617        -7.94244
   O       -4.07342        -0.04017        -7.76147
   C       -4.89621         0.10729        -6.69530
   C       -4.78084         1.37782        -6.19220
   C       -3.82618         2.03626        -7.00977
   C       -3.34428         3.41857        -6.90617
   O       -2.50075         3.90656        -7.61569
   O       -3.95620         4.08018        -5.91274
   C       -3.56803         5.43494        -5.74260
   C       -5.79114        -0.97481        -6.34138
   C       -6.72754        -1.52402        -7.18650
   N       -7.07022        -1.07730        -8.48090
   O       -7.87986        -1.74234        -9.10157
   O       -6.56770        -0.04709        -8.89196
   C       -7.43764        -2.58510        -6.50872
   C       -6.89882        -2.73084        -5.28059
   C       -5.81857        -1.77991        -5.11626
   C       -4.93630        -1.71746        -4.06090
   C       -4.11013        -0.61380        -3.67449
   C       -3.63526        -0.84729        -2.42473
   C       -4.08123        -2.13839        -1.97283
   N       -3.66408        -2.62422        -0.72462
   O       -2.74596        -2.03548        -0.17859
   O       -4.23676        -3.58490        -0.22761
   C       -4.82134        -2.74292        -2.99213
   C       -5.20728        -4.07600        -3.23332
   C       -5.41852        -5.07927        -2.32551
   C       -5.79552        -6.37227        -2.73478
   N       -6.08728        -7.39227        -1.86342
   C       -6.07102        -7.31714        -0.42065
   C       -7.34502        -6.67645         0.12282
   C       -6.48914        -8.56252        -2.52655
   O       -6.77643        -9.59487        -1.95937
   C       -6.42805        -8.21191        -3.93424
   C       -5.98050        -6.87864        -4.03226
   C       -5.87802        -6.54639        -5.43800
   O       -5.54216        -5.53205        -6.01575
   N       -6.28162        -7.71900        -6.10365
   C       -6.28170        -7.79316        -7.54517
   C       -5.04175        -8.51059        -8.07295
   C       -6.62269        -8.71503        -5.22597
   C       -7.12109        -9.98422        -5.62030
   C       -7.65299       -10.84873        -4.72593
   C       -8.19604       -12.13496        -5.05996
   C       -7.80787       -12.92146        -6.11464
   S       -8.61479       -14.43028        -6.15424
   C       -9.51621       -14.03072        -4.75551
   C       -9.20136       -12.79469        -4.27103
   C       -9.89128       -12.15568        -3.13978
   O       -9.92364       -10.97217        -2.92343
   O      -10.52902       -13.07941        -2.37999
   C      -11.22920       -12.64162        -1.29289
   C      -11.91019       -13.50073        -0.52822
   C      -12.65887       -13.08567         0.62118
   O      -12.68154       -11.78454         0.96887
   C      -13.44626       -11.66214         2.06901
   C      -13.93366       -12.86775         2.45577
   C      -13.42851       -13.81333         1.51916
   C      -13.72771       -15.24524         1.58287
   O      -14.41706       -15.75221         2.43313
   O      -13.15529       -15.95208         0.58947
   C      -13.41668       -17.34806         0.60703
   H       -2.72340         1.17503        -8.74239
   H       -5.33163         1.80938        -5.38204
   H       -4.14297         5.81264        -4.90110
   H       -3.78725         6.00798        -6.64580
   H       -2.49733         5.50033        -5.53815
   H       -8.26029        -3.11801        -6.94416
   H       -7.25471        -3.38303        -4.50844
   H       -3.96248         0.27588        -4.25087
   H       -3.02097        -0.20044        -1.82670
   H       -5.33840        -4.31669        -4.28027
   H       -5.33040        -4.88242        -1.26876
   H       -5.18932        -6.76091        -0.09447
   H       -5.99686        -8.34795        -0.06371
   H       -7.44638        -5.65337        -0.23141
   H       -7.31326        -6.66603         1.20831
   H       -8.21444        -7.24659        -0.19611
   H       -6.28545        -6.75981        -7.90286
   H       -7.19559        -8.28740        -7.88499
   H       -4.14557        -7.97858        -7.76361
   H       -5.06928        -8.54056        -9.15845
   H       -4.98650        -9.52892        -7.69416
   H       -7.11449       -10.22588        -6.67350
   H       -7.71618       -10.56521        -3.68422
   H       -7.05165       -12.71091        -6.84435
   H      -10.24414       -14.71576        -4.36920
   H      -11.18905       -11.57554        -1.10774
   H      -11.92210       -14.55446        -0.75256
   H      -13.56360       -10.67641         2.47338
   H      -14.56789       -13.09167         3.28740
   H      -12.88447       -17.76823        -0.24251
   H      -14.48899       -17.53451         0.51924
   H      -13.06059       -17.78936         1.54011
*
