# ORCA input file
# SCF done       -185.159484000410          0.000755185148
! CAM-B3LYP def2-SVP def2/J RIJCOSX Grid4 TightSCF
%maxcore 5000
%tddft
    Mode sTDDFT
    Ethresh 5.0
    maxcore 5000
end

%pal
  nprocs 6
  end
* xyz 0 1
   C       -2.77053        -2.28352        -3.91859
   C       -1.69605        -3.14809        -4.06524
   C       -0.43570        -2.66896        -3.77014
   C       -0.25194        -1.34829        -3.34495
   C        1.19913        -1.14720        -3.09350
   O        1.78149        -0.16863        -2.70405
   N        1.79404        -2.36505        -3.38845
   C        0.88949        -3.33124        -3.80600
   O        1.17519        -4.46125        -4.11097
   C        3.22072        -2.59397        -3.30197
   C        3.92624        -2.17851        -4.58788
   C       -1.30965        -0.48293        -3.20678
   C       -2.60153        -0.95964        -3.49454
   C       -3.74476        -0.08574        -3.34279
   C       -3.75367         1.28400        -3.36494
   C       -5.09507         1.75051        -3.18578
   C       -5.92388         0.54615        -3.00793
   C       -5.11013        -0.53770        -3.11278
   C       -7.28510         0.48907        -2.68415
   N       -8.38639         0.37763        -2.37834
   C       -5.53760         3.05135        -3.17940
   C       -6.88222         3.50655        -3.08264
   C       -6.89549         4.88690        -3.02603
   C       -5.51615         5.34586        -3.11796
   C       -4.70221         4.26382        -3.23294
   C       -3.31032         4.32583        -3.36223
   N       -2.16981         4.41745        -3.46401
   C       -8.08774         5.65094        -2.90957
   N       -8.21440         6.93733        -2.45094
   C       -7.18265         7.83053        -1.97929
   C       -6.67261         8.73771        -3.09664
   C       -9.56212         7.35364        -2.41209
   O       -9.91262         8.43789        -2.00037
   C      -10.30064         6.22057        -2.92362
   C       -9.37621         5.19087        -3.20412
   C      -10.11525         4.05436        -3.71894
   O       -9.77048         2.97217        -4.13683
   N      -11.46348         4.46640        -3.65571
   C      -12.52516         3.60884        -4.12282
   C      -13.03545         4.03343        -5.49743
   C      -11.58898         5.75299        -3.19633
   C      -12.82942         6.40558        -3.00763
   C      -12.94452         7.73016        -2.72413
   C      -14.17963         8.36906        -2.47681
   S      -15.67949         7.48171        -2.23284
   C      -16.60029         8.93687        -1.93325
   C      -15.76785        10.03528        -2.03834
   C      -14.42558         9.72338        -2.34063
   C      -13.63222        10.95040        -2.48225
   O      -12.48630        11.05940        -2.83216
   C      -14.58072        12.09561        -2.13628
   C      -15.95417        11.48127        -1.90608
   O      -16.97706        12.07549        -1.66816
   C      -17.98237         8.95447        -1.61000
   C      -18.74499         7.85078        -1.47228
   C      -20.14143         7.81035        -1.10906
   C      -20.74054         6.55051        -0.92131
   C      -22.06233         6.49834        -0.55211
   C      -22.81482         7.66314        -0.36944
   C      -24.18676         7.26701         0.02718
   O      -25.14400         7.95454         0.27464
   N      -24.17453         5.87806         0.05533
   C      -22.94391         5.33448        -0.27560
   O      -22.69347         4.15738        -0.32337
   C      -25.32120         5.08157         0.43814
   C      -25.34557         4.83796         1.94291
   C      -22.24680         8.90771        -0.55986
   C      -20.91159         8.96756        -0.92759
   H       -3.76187        -2.63659        -4.15805
   H       -1.83586        -4.16524        -4.39658
   H        3.36630        -3.66024        -3.11309
   H        3.59711        -2.01090        -2.45780
   H        3.54250        -2.75046        -5.42968
   H        4.99303        -2.36207        -4.49733
   H        3.76777        -1.11931        -4.77665
   H       -1.15249         0.52795        -2.86575
   H       -2.91374         1.92607        -3.54181
   H       -5.41361        -1.56172        -2.99902
   H       -7.74308         2.86855        -3.05828
   H       -5.18651         6.36626        -3.14664
   H       -6.37768         7.24584        -1.52966
   H       -7.64281         8.45073        -1.20386
   H       -6.30726         8.15851        -3.94235
   H       -5.86790         9.36594        -2.72466
   H       -7.48057         9.37708        -3.44322
   H      -13.33861         3.60025        -3.39164
   H      -12.09456         2.60540        -4.18242
   H      -13.43084         5.04676        -5.47205
   H      -13.82231         3.35835        -5.82166
   H      -12.22575         3.99566        -6.22190
   H      -13.72874         5.80902        -3.09498
   H      -12.06873         8.36620        -2.67757
   H      -14.60597        12.84479        -2.92999
   H      -14.23926        12.60925        -1.23443
   H      -18.38105         9.94842        -1.46013
   H      -18.27662         6.88538        -1.62729
   H      -20.17275         5.64251        -1.05783
   H      -25.25485         4.13327        -0.10047
   H      -26.21572         5.62596         0.12629
   H      -24.44836         4.30678         2.25237
   H      -26.21381         4.23996         2.20437
   H      -25.39909         5.78452         2.47586
   H      -22.82960         9.80509        -0.42267
   H      -20.45812         9.93432        -1.07862
*
