# ORCA input file
# SCF done       -173.435038010123          0.000968643892
! CAM-B3LYP def2-SVP def2/J RIJCOSX Grid4 TightSCF
%maxcore 5000
%tddft
    Mode sTDDFT
    Ethresh 5.0
    maxcore 5000
end

%pal
  nprocs 6
  end
* xyz 0 1
   C       -0.31681         1.40394        -5.63979
   C       -1.18456         1.43320        -4.58738
   F       -1.54818         2.55598        -3.96621
   C       -1.65744         0.15561        -4.22293
   F       -2.50983        -0.04486        -3.21892
   C       -1.14386        -0.86063        -5.00645
   S       -0.06475        -0.19058        -6.19851
   C       -1.39094        -2.25896        -4.93020
   C       -2.22333        -2.93236        -4.06681
   C       -2.12505        -4.32844        -4.33268
   C       -1.18185        -4.47351        -5.46089
   C       -0.75723        -3.23324        -5.80967
   C       -0.85586        -5.65357        -6.14235
   N       -0.59776        -6.58334        -6.76441
   C       -2.76017        -5.35822        -3.67576
   C       -2.52957        -6.75074        -3.83704
   C       -3.40259        -7.45717        -3.02682
   C       -4.22377        -6.48761        -2.31596
   C       -3.82977        -5.23644        -2.67238
   C       -4.39921        -4.05516        -2.18085
   N       -4.89958        -3.11447        -1.75338
   C       -3.40824        -8.87227        -2.94565
   N       -4.40332        -9.68813        -2.46749
   C       -5.73192        -9.32398        -2.03045
   C       -6.57431        -8.74982        -3.16466
   C       -4.05783       -11.04915        -2.57526
   O       -4.79318       -11.95526        -2.23623
   C       -2.72548       -11.04482        -3.13711
   C       -2.35833        -9.70605        -3.36104
   C       -0.99288        -9.69354        -3.86300
   O       -0.23906        -8.79157        -4.14743
   N       -0.64484       -11.05530        -3.94101
   C        0.63835       -11.46649        -4.46338
   C        0.54971       -11.82279        -5.94459
   C       -1.65735       -11.87547        -3.52228
   C       -1.56656       -13.28203        -3.51720
   C       -2.58614       -14.07553        -3.07110
   C       -2.59060       -15.48261        -2.93779
   C       -1.55933       -16.37451        -2.63784
   N       -0.16441       -16.19654        -2.59813
   O        0.35275       -15.32034        -3.27533
   O        0.46734       -16.96157        -1.89102
   C       -2.12733       -17.61282        -2.17831
   C       -3.47842       -17.53943        -2.24775
   C       -3.84545       -16.26463        -2.80295
   C       -5.07810       -15.88447        -3.27920
   C       -5.42036       -14.64471        -3.93146
   C       -6.76529       -14.53233        -3.97747
   C       -7.35513       -15.71788        -3.39407
   N       -8.74904       -15.91932        -3.43573
   O       -9.24156       -16.82553        -2.78623
   O       -9.38859       -15.16211        -4.14512
   C       -6.35514       -16.60492        -3.04545
   C       -6.45709       -17.98588        -2.69561
   C       -7.34474       -18.55545        -1.85147
   C       -7.40927       -19.95958        -1.62948
   C       -8.23332       -20.62101        -0.74181
   F       -9.08123       -19.99302         0.07028
   C       -8.07894       -22.02392        -0.76974
   F       -8.77376       -22.85774         0.00587
   C       -7.14253       -22.43897        -1.66837
   S       -6.43620       -21.11903        -2.49471
   H        0.17551         2.23566        -6.10102
   H       -2.82776        -2.49834        -3.29538
   H       -0.07630        -2.98143        -6.60162
   H       -1.77968        -7.17665        -4.47321
   H       -4.98712        -6.70675        -1.59518
   H       -5.67078        -8.62926        -1.18949
   H       -6.18307       -10.25383        -1.67083
   H       -6.13584        -7.83659        -3.56116
   H       -7.57230        -8.52530        -2.79915
   H       -6.65603        -9.47357        -3.97209
   H        1.01497       -12.31120        -3.88240
   H        1.30822       -10.61266        -4.33185
   H       -0.13734       -12.65052        -6.10494
   H        1.53147       -12.11115        -6.30807
   H        0.20569       -10.96338        -6.51515
   H       -0.66007       -13.72752        -3.89458
   H       -3.49430       -13.58897        -2.73880
   H       -1.53137       -18.43760        -1.83562
   H       -4.15758       -18.31247        -1.95443
   H       -4.72181       -13.93914        -4.33021
   H       -7.34861       -13.72864        -4.38374
   H       -5.75000       -18.63603        -3.19956
   H       -8.04167       -17.96137        -1.28018
   H       -6.84215       -23.44496        -1.87967
*
