# ORCA input file
# SCF done       -231.438282242120          0.000623831562
! CAM-B3LYP def2-SVP def2/J RIJCOSX Grid4 TightSCF
%maxcore 5000
%tddft
    Mode sTDDFT
    Ethresh 5.0
    maxcore 5000
end

%pal
  nprocs 6
  end
* xyz 0 1
   C       -3.42446         7.01871         5.47986
   C       -3.51026         6.36103         6.67625
   C       -3.98796         6.95310         7.86548
   N       -4.35888         7.39748         8.85549
   C       -3.20276         4.99299         6.82670
   N       -2.99538         3.87199         6.96497
   C       -3.87740         8.36753         5.18550
   C       -3.92517         8.53432         3.76856
   C       -4.33738         9.70507         3.20021
   C       -4.71239        10.78224         4.03432
   C       -4.66055        10.62346         5.45108
   C       -4.23920         9.39860         6.01373
   C       -5.03947        11.70661         6.27105
   C       -5.44988        12.89002         5.72081
   C       -5.49997        13.04559         4.32693
   C       -5.13972        12.01461         3.50196
   C       -3.50564         7.28351         3.10779
   O       -3.65877         6.96426         1.95823
   C       -2.95096         6.44472         4.22509
   C       -2.08995         5.41538         4.10450
   C       -1.52479         4.92234         2.88181
   N       -1.13307         5.69086         1.89405
   C       -0.62925         4.85590         0.95245
   C       -0.69146         3.45821         1.39193
   C       -0.19527         2.56015         0.33178
   O       -0.15344         1.35213         0.32733
   C        0.20316         3.50859        -0.72836
   C       -0.08052         4.90008        -0.30482
   N        0.27619         5.77628        -1.27590
   C        0.74443         5.03745        -2.24938
   C        0.72590         3.60948        -1.97436
   C       -1.25089         3.47970         2.64904
   C       -1.54775         2.44416         3.57213
   C       -1.08647         1.17248         3.41525
   C       -1.28013         0.05133         4.25439
   N       -2.15990        -0.15012         5.28827
   C       -3.21645         0.71149         5.77100
   C       -4.34198         0.86540         4.75269
   C       -2.02651        -1.44270         5.83726
   O       -2.70850        -1.85276         6.75468
   C       -0.95735        -2.06035         5.07950
   C       -0.52741        -1.12948         4.12651
   C        0.57494        -1.71308         3.37667
   O        1.28379        -1.27863         2.50231
   N        0.69792        -3.01019         3.91821
   C        1.72577        -3.91580         3.45848
   C        2.91395        -3.95729         4.41487
   C       -0.19227        -3.23937         4.93390
   C       -0.28060        -4.45732         5.62398
   C       -1.17370        -4.65715         6.64764
   C       -1.34815        -5.81434         7.42516
   C       -0.57834        -6.97348         7.63335
   N        0.61013        -7.41490         7.03589
   O        1.29154        -8.20202         7.67546
   O        0.92113        -7.02311         5.91973
   C       -1.12669        -7.70915         8.72966
   C       -2.18654        -7.02709         9.24391
   C       -2.38553        -5.84228         8.47102
   C       -3.41086        -4.92317         8.65492
   C       -4.18621        -4.26175         7.66494
   C       -5.26201        -3.67202         8.27166
   C       -5.16389        -3.86486         9.68361
   N       -6.07252        -3.31772        10.60659
   O       -7.01261        -2.68448        10.15975
   O       -5.88399        -3.52038        11.79508
   C       -4.01572        -4.60457         9.96325
   C       -3.38955        -4.84945        11.20140
   C       -2.04169        -5.06866        11.29651
   C       -1.38330        -5.55011        12.44625
   C       -0.09857        -6.01978        12.40080
   C        0.63092        -6.67525        13.47013
   C        0.34173        -6.61159        14.80849
   C        1.10022        -7.25291        15.80997
   N        1.67534        -7.75243        16.66865
   C       -0.72168        -5.87160        15.36737
   N       -1.55922        -5.28568        15.88964
   C        1.75270        -7.38698        12.86965
   C        1.78757        -7.08624        11.47634
   C        0.71606        -6.13696        11.15433
   O        0.54661        -5.56441        10.09612
   C        2.69899        -7.65854        10.63495
   C        3.64711        -8.56109        11.16470
   C        3.63819        -8.84635        12.56125
   C        2.67162        -8.25015        13.40452
   C        4.59814        -9.74054        13.07629
   C        5.51981       -10.32811        12.25226
   C        5.52119       -10.05336        10.87640
   C        4.60412        -9.18833        10.34332
   H       -4.37119         9.81008         2.12620
   H       -4.20271         9.30488         7.08808
   H       -5.00099        11.58119         7.34304
   H       -5.73831        13.71346         6.35647
   H       -5.82548        13.98685         3.91038
   H       -5.17692        12.12897         2.42872
   H       -1.75771         4.89907         4.99705
   H        1.10585         5.49499        -3.15398
   H        1.06477         2.84200        -2.64152
   H       -2.12753         2.72567         4.43828
   H       -0.45280         0.95775         2.56149
   H       -2.81218         1.68043         6.06907
   H       -3.60431         0.22055         6.66852
   H       -3.98190         1.29350         3.81996
   H       -5.10943         1.51622         5.16178
   H       -4.78730        -0.10308         4.53706
   H        2.04758        -3.53572         2.48518
   H        1.30277        -4.91503         3.33041
   H        3.33599        -2.96203         4.53290
   H        3.67910        -4.61513         4.01356
   H        2.61473        -4.33057         5.39095
   H        0.37308        -5.25855         5.31730
   H       -1.82524        -3.83291         6.90740
   H       -0.73138        -8.65000         9.06448
   H       -2.83189        -7.35278        10.03672
   H       -4.02543        -4.33694         6.60743
   H       -6.06485        -3.13932         7.79823
   H       -4.00657        -4.81629        12.09151
   H       -1.42444        -4.89834        10.42673
   H       -1.95748        -5.64393        13.35967
   H        2.68247        -7.44994         9.57609
   H        2.67567        -8.50369        14.45291
   H        4.59167        -9.95275        14.13541
   H        6.25152       -11.01126        12.65701
   H        6.25219       -10.53117        10.24151
   H        4.59283        -8.97381         9.28529
*
