# ORCA input file
# SCF done       -193.454382374832          0.000526004519
! CAM-B3LYP def2-SVP def2/J RIJCOSX Grid4 TightSCF
%maxcore 5000
%tddft
    Mode sTDDFT
    Ethresh 5.0
    maxcore 5000
end

%pal
  nprocs 6
  end
* xyz 0 1
   C        4.36060         2.50707         1.38800
   C        4.22945         1.98917         2.65009
   C        5.20920         1.19070         3.27744
   N        5.96634         0.53949         3.84338
   C        3.09766         2.12666         3.48143
   N        2.20914         2.17596         4.20761
   C        5.48247         2.26438         0.49074
   C        5.15395         2.79082        -0.78990
   C        6.01165         2.70631        -1.84853
   C        7.26745         2.08511        -1.66796
   C        7.60869         1.56372        -0.38641
   C        6.69650         1.66156         0.68937
   C        8.86744         0.95223        -0.21597
   C        9.74727         0.85837        -1.25979
   C        9.40978         1.37131        -2.52120
   C        8.19602         1.97113        -2.72111
   C        3.81622         3.40430        -0.74625
   O        3.22988         3.89706        -1.68720
   C        3.37972         3.30948         0.67079
   C        2.35145         3.96630         1.28464
   C        1.30567         4.75328         0.75280
   S        0.32487         5.64998         1.89809
   C       -0.68308         6.29023         0.64845
   C       -0.26955         5.80329        -0.60121
   C        0.83860         4.94938        -0.53229
   C       -0.86476         6.11318        -1.83639
   N       -1.31539         6.33591        -2.86869
   C       -1.72701         7.18705         0.99898
   C       -2.62471         7.69030         0.11823
   C       -3.68705         8.62067         0.36232
   C       -3.92883         9.29618         1.58774
   O       -3.10358         9.03039         2.63006
   C       -3.29853         9.70596         3.85295
   C       -4.97439        10.19522         1.65273
   C       -5.83369        10.46475         0.57608
   C       -5.59491         9.78516        -0.64972
   C       -4.53474         8.90087        -0.71784
   O       -6.42376        10.05390        -1.68461
   C       -6.14294         9.56138        -2.98487
   C       -4.99892        10.30819        -3.66143
   C       -6.86535        11.43214         0.79319
   C       -7.92366        11.72889        -0.00509
   C       -8.86845        12.74293         0.29768
   C       -8.85958        13.67818         1.31229
   C       -9.99682        14.51762         1.19332
   C      -10.74914        14.02574         0.01654
   C      -10.06384        12.97892        -0.50580
   C      -11.94835        14.53482        -0.49233
   N      -12.93005        14.92527        -0.94407
   C      -10.32384        15.60096         1.97778
   C      -11.43441        16.48446         1.82067
   C      -11.32798        17.50958         2.73501
   C      -10.15971        17.25394         3.56198
   C       -9.55972        16.11355         3.12359
   C       -8.42851        15.52923         3.70157
   N       -7.50479        15.05727         4.19708
   C      -12.22790        18.60665         2.84360
   C      -11.89569        19.87764         3.20001
   C      -12.80620        20.98979         3.40609
   C      -14.15683        20.89809         3.61605
   C      -14.99779        22.00829         3.83884
   N      -15.73028        22.87361         4.01869
   C      -14.87796        19.68683         3.67992
   N      -15.52107        18.74017         3.77041
   C      -12.01486        22.21278         3.44070
   C      -10.63731        21.86601         3.33454
   C      -10.50303        20.40574         3.20142
   O       -9.47590        19.78222         3.04235
   C       -9.65270        22.81172         3.33880
   C      -10.00748        24.17449         3.45138
   C      -11.38361        24.53040         3.55304
   C      -12.38116        23.52868         3.54585
   C      -11.72590        25.89397         3.65772
   C      -10.75736        26.86055         3.66199
   C       -9.40291        26.50893         3.56186
   C       -9.03588        25.19449         3.45974
   H        5.73576         3.11124        -2.81093
   H        6.98726         1.26293         1.64825
   H        9.12222         0.55737         0.75659
   H       10.70883         0.38792        -1.11910
   H       10.11634         1.28916        -3.33352
   H        7.93043         2.36819        -3.68997
   H        2.32930         3.91322         2.36740
   H        1.28851         4.49524        -1.39653
   H       -1.77815         7.45604         2.04189
   H       -2.55590         7.36112        -0.90993
   H       -2.52220         9.33111         4.51813
   H       -4.27947         9.48343         4.28255
   H       -3.18349        10.78736         3.73734
   H       -5.16678        10.72514         2.57194
   H       -4.33003         8.37806        -1.63843
   H       -7.07241         9.73112        -3.53560
   H       -5.95243         8.48253        -2.96043
   H       -5.22383        11.37120        -3.69974
   H       -4.87279         9.93704        -4.67429
   H       -4.06605        10.17329        -3.12000
   H       -6.78171        11.97220         1.72822
   H       -8.08555        11.17655        -0.91700
   H       -8.11091        13.78987         2.07017
   H      -10.34081        12.39988        -1.36794
   H      -12.19081        16.39314         1.06532
   H       -9.86033        17.84082         4.40824
   H      -13.25193        18.39505         2.55839
   H       -8.61530        22.52295         3.25623
   H      -13.41447        23.82974         3.61566
   H      -12.76992        26.15976         3.73540
   H      -11.02977        27.90220         3.74234
   H       -8.65191        27.28471         3.56552
   H       -7.99467        24.91749         3.38196
*
