# ORCA input file
# SCF done       -233.250428693163          0.000617325828
! CAM-B3LYP def2-SVP def2/J RIJCOSX Grid4 TightSCF
%maxcore 5000
%tddft
    Mode sTDDFT
    Ethresh 5.0
    maxcore 5000
end

%pal
  nprocs 6
  end
* xyz 0 1
   C        7.12310         5.73025         0.13812
   C        7.47017         5.90611        -1.17311
   C        8.80299         5.86686        -1.63734
   N        9.86723         5.83753        -2.06316
   C        6.52916         6.05193        -2.21198
   N        5.78637         6.13012        -3.08438
   C        8.01534         5.32336         1.21125
   C        7.23643         4.72381         2.24721
   C        7.82422         4.15416         3.34324
   C        9.22871         4.20875         3.47935
   C       10.00256         4.87442         2.48212
   C        9.37507         5.41474         1.33739
   C       11.39681         4.97106         2.65840
   C       12.00086         4.43188         3.76183
   C       11.24125         3.76167         4.73241
   C        9.88471         3.64782         4.59297
   C        5.81225         4.86104         1.92853
   O        4.85228         4.48315         2.56538
   C        5.76923         5.65627         0.66391
   C        4.61913         6.23845         0.25963
   C        4.42623         7.24216        -0.74109
   C        5.09514         8.43598        -0.93875
   N        6.19419         8.95307        -0.24446
   O        6.47818        10.12296        -0.44479
   O        6.78791         8.23856         0.55138
   C        4.43430         9.20036        -1.97262
   C        3.36279         8.50358        -2.40407
   C        3.28943         7.25613        -1.67486
   C        2.46023         6.19214        -1.92597
   C        2.73401         4.81823        -1.61921
   C        1.90408         4.03229        -2.35277
   C        1.00217         4.87025        -3.09741
   N       -0.03010         4.35016        -3.90418
   O       -0.09729         3.14027        -4.00835
   O       -0.79011         5.13308        -4.44928
   C        1.27327         6.20086        -2.82053
   C        0.53781         7.32309        -3.25302
   C        0.41498         8.49801        -2.56972
   C       -0.27418         9.61482        -3.09997
   S       -0.77254         9.62526        -4.77324
   C       -1.55239        11.14713        -4.58441
   C       -2.19384        11.71935        -5.78778
   O       -2.07967        11.20615        -6.86498
   O       -2.90491        12.84021        -5.60864
   C       -1.43764        11.63619        -3.30808
   C       -0.69934        10.78727        -2.46028
   O       -0.59257        11.14522        -1.16500
   C        0.42032        10.82887        -0.33204
   C        0.16680        10.93454         0.98795
   C        1.04183        10.81884         2.10230
   C        0.65186        10.38461         3.35891
   N       -0.61750         9.93544         3.77038
   O       -0.73971         9.61036         4.93761
   O       -1.52229         9.89326         2.95184
   C        1.77565        10.41712         4.26184
   C        2.86407        10.82368         3.57490
   C        2.48759        11.10760         2.20562
   C        3.31274        11.68395         1.27036
   C        2.94197        12.56296         0.19524
   C        4.06038        13.17471        -0.27628
   C        5.20570        12.66294         0.42361
   N        6.53182        13.05327         0.11137
   O        6.69077        13.64689        -0.93628
   O        7.40606        12.81259         0.91674
   C        4.79548        11.72266         1.35018
   C        5.61617        10.81879         2.06820
   C        5.17720         9.58546         2.45356
   C        5.90909         8.69424         3.26860
   C        5.34939         7.55824         3.78045
   C        5.93389         6.67961         4.77582
   C        7.26314         6.59517         5.09717
   C        7.77460         5.76301         6.11365
   N        8.24841         5.11451         6.93391
   C        8.30473         7.26631         4.42173
   N        9.21609         7.73333         3.90392
   C        4.86245         5.86602         5.33161
   C        3.66668         6.12882         4.60125
   C        3.93564         7.13004         3.56664
   O        3.16722         7.52122         2.70754
   C        2.49395         5.48831         4.88334
   C        2.45961         4.54842         5.93625
   C        3.65010         4.28240         6.67396
   C        4.85233         4.95314         6.35210
   C        3.60247         3.34344         7.72381
   C        2.43561         2.69817         8.03354
   C        1.26449         2.96119         7.30747
   C        1.27630         3.86610         6.28039
   H        7.22358         3.66985         4.10064
   H        9.98125         5.90639         0.59323
   H       11.97724         5.48336         1.90618
   H       13.06892         4.51838         3.89232
   H       11.73369         3.33958         5.59503
   H        9.29580         3.14076         5.34243
   H        3.72183         5.93571         0.79363
   H        4.79786        10.14684        -2.32462
   H        2.73393         8.76110        -3.23180
   H        3.54773         4.47786        -1.01069
   H        1.88908         2.95960        -2.40214
   H       -0.02702         7.19415        -4.16908
   H        0.80537         8.56854        -1.56355
   H       -2.94397        13.13263        -4.68927
   H       -1.83773        12.56779        -2.94711
   H        1.37422        10.54590        -0.76236
   H       -0.87589        11.07821         1.25051
   H        1.70551        10.16223         5.30187
   H        3.83477        11.01717         3.98488
   H        1.93140        12.80577        -0.06715
   H        4.12350        13.92838        -1.03877
   H        6.64495        11.11251         2.23515
   H        4.19586         9.25474         2.14196
   H        6.91284         8.98088         3.55506
   H        1.60206         5.69815         4.31205
   H        5.73619         4.73157         6.92970
   H        4.50584         3.14421         8.28156
   H        2.40897         1.98227         8.84118
   H        0.35298         2.44387         7.56619
   H        0.37751         4.07325         5.71873
*
