# ORCA input file
# SCF done       -193.820275737885          0.000253023597
! CAM-B3LYP def2-SVP def2/J RIJCOSX Grid4 TightSCF
%maxcore 5000
%tddft
    Mode sTDDFT
    Ethresh 5.0
    maxcore 5000
end

%pal
  nprocs 6
  end
* xyz 0 1
   C       -2.82747        -0.52437        -8.58971
   S       -3.52217        -1.70730        -7.58860
   C       -5.06711        -0.90432        -7.57434
   C       -5.00414         0.27882        -8.30786
   C       -3.71679         0.48555        -8.90029
   C       -3.49035         1.63783        -9.70459
   C       -2.22490         1.83304       -10.29802
   N       -1.19343         1.98812       -10.77406
   C       -4.50808         2.55032        -9.88300
   C       -5.74426         2.38278        -9.24673
   C       -5.99983         1.28175        -8.45514
   C       -7.21380         1.19644        -7.74002
   N       -8.17555         1.15520        -7.11690
   C       -6.17413        -1.53364        -6.93040
   C       -7.42718        -1.82867        -7.43809
   N       -7.92663        -1.56830        -8.72264
   O       -9.00328        -2.05338        -9.01762
   O       -7.24577        -0.89806        -9.48806
   C       -8.14826        -2.62937        -6.47890
   C       -7.34417        -2.86765        -5.41436
   C       -6.09682        -2.18780        -5.61650
   C       -5.08286        -2.00070        -4.69677
   C       -4.21833        -0.86796        -4.60686
   C       -3.52048        -0.94523        -3.44006
   C       -3.86944        -2.15187        -2.75486
   N       -3.23317        -2.47432        -1.54549
   O       -3.70259        -3.34592        -0.82668
   O       -2.23284        -1.83850        -1.25981
   C       -4.81861        -2.85119        -3.51763
   C       -5.31927        -4.16314        -3.47828
   C       -5.32721        -5.04436        -2.42548
   C       -5.87727        -6.32858        -2.54913
   N       -5.97708        -7.21775        -1.50873
   C       -5.56558        -6.98717        -0.14221
   C       -6.58719        -6.15138         0.62317
   C       -6.60141        -8.41356        -1.88881
   O       -6.80547        -9.34088        -1.13503
   C       -6.89077        -8.23383        -3.30253
   C       -6.43521        -6.96249        -3.68025
   C       -6.70167        -6.79354        -5.09686
   O       -6.48009        -5.87625        -5.86207
   N       -7.31032        -7.99660        -5.48236
   C       -7.77723        -8.19265        -6.83484
   C       -9.27867        -7.94686        -6.95747
   C       -7.44406        -8.87150        -4.43003
   C       -8.02884       -10.14401        -4.53171
   C       -8.19271       -10.97127        -3.45198
   C       -8.79023       -12.24521        -3.50016
   C       -9.01876       -13.06005        -2.40029
   C       -9.63809       -14.26205        -2.82610
   C       -9.78577       -14.14953        -4.29001
   C       -9.28437       -12.94799        -4.67644
   C      -10.36020       -15.08899        -5.15476
   N      -10.84081       -15.82508        -5.89434
   C      -10.02065       -15.33992        -2.05552
   C      -10.58711       -16.55896        -2.51231
   C      -10.78770       -17.39372        -1.43612
   C      -10.38963       -16.68093        -0.23164
   C       -9.90714       -15.46264        -0.58915
   C       -9.41750       -14.50057         0.30123
   N       -9.03238       -13.73360         1.06432
   C      -11.32760       -18.70660        -1.44915
   S      -12.29093       -19.25759        -0.11309
   C      -12.72353       -20.69336        -0.91169
   C      -12.13475       -20.79551        -2.15557
   C      -11.30068       -19.66930        -2.46452
   C      -10.51040       -19.71595        -3.64478
   C       -9.46082       -18.80306        -3.89821
   N       -8.54221       -18.15346        -4.11979
   C      -10.66795       -20.76720        -4.52915
   C      -11.56094       -21.81427        -4.27323
   C      -12.26867       -21.85978        -3.09224
   C      -13.11340       -22.94838        -2.78738
   N      -13.80275       -23.82828        -2.53248
   H       -1.81128        -0.61721        -8.91957
   H       -4.34281         3.41919       -10.50219
   H       -6.50933         3.13439        -9.36958
   H       -9.15790        -2.95801        -6.63322
   H       -7.62291        -3.37923        -4.51488
   H       -4.22207        -0.03462        -5.28220
   H       -2.82033        -0.23018        -3.05058
   H       -5.75444        -4.50183        -4.40918
   H       -4.93239        -4.74591        -1.46723
   H       -4.58786        -6.50017        -0.13498
   H       -5.47790        -7.97450         0.31899
   H       -6.69958        -5.16741         0.17449
   H       -6.25677        -6.02732         1.65005
   H       -7.55362        -6.65005         0.62623
   H       -7.51549        -9.20040        -7.16817
   H       -7.23706        -7.46800        -7.45014
   H       -9.84094        -8.62197        -6.31588
   H       -9.59211        -8.09831        -7.98638
   H       -9.51158        -6.92387        -6.67278
   H       -8.36900       -10.46215        -5.50634
   H       -7.85656       -10.63806        -2.47841
   H       -8.76195       -12.81960        -1.38695
   H       -9.25189       -12.58103        -5.68529
   H      -10.84566       -16.76315        -3.53087
   H      -10.44765       -17.08461         0.76262
   H      -13.38826       -21.39565        -0.44847
   H      -10.06919       -20.79023        -5.42711
   H      -11.66521       -22.61310        -4.99163
*
