# ORCA input file
# SCF done       -200.430230795099          0.000465443213
! CAM-B3LYP def2-SVP def2/J RIJCOSX Grid4 TightSCF
%maxcore 5000
%tddft
    Mode sTDDFT
    Ethresh 5.0
    maxcore 5000
end

%pal
  nprocs 6
  end
* xyz 0 1
   C       -7.65212        -0.22165         1.42899
   C       -7.28290        -0.24825         0.14985
   C       -6.42592         0.82965        -0.29646
   C       -6.09988         1.73361         0.64830
   S       -6.91255         1.23060         2.19058
   O       -7.90141         2.19715         2.57758
   O       -5.92339         0.86548         3.16591
   C       -5.28894         2.88602         0.68142
   C       -4.46920         3.29596        -0.32462
   C       -3.61822         4.42478        -0.26354
   C       -3.15501         5.17808        -1.34134
   N       -3.33428         4.92957        -2.71360
   O       -2.87013         5.74353        -3.49197
   O       -3.93451         3.92215        -3.05549
   C       -2.46806         6.33765        -0.85302
   C       -2.52514         6.33681         0.50644
   C       -3.18222         5.13861         0.94387
   C       -3.16371         4.66312         2.24410
   C       -2.99568         3.29949         2.62962
   C       -2.59970         3.25584         3.93877
   C       -2.57454         4.57851         4.46016
   N       -2.17031         4.87079         5.78319
   O       -1.86886         6.01808         6.05083
   O       -2.10919         3.93709         6.56069
   C       -2.99030         5.47937         3.46780
   C       -3.42957         6.78945         3.69286
   C       -4.17101         7.53831         2.80335
   C       -4.63429         8.82755         3.08292
   N       -5.27839         9.62844         2.16580
   C       -5.53331         9.32524         0.77597
   C       -4.29852         9.55062        -0.09114
   C       -5.61915        10.87658         2.69980
   O       -6.17714        11.75315         2.07213
   C       -5.17632        10.81128         4.08248
   C       -4.58218         9.56256         4.28781
   C       -4.22902         9.45786         5.69748
   O       -3.74000         8.56292         6.34236
   N       -4.63190        10.69164         6.24558
   C       -4.39594        10.99432         7.63959
   C       -3.17916        11.89413         7.83117
   C       -5.18812        11.51734         5.30863
   C       -5.66392        12.80665         5.59644
   C       -6.18905        13.63030         4.63285
   C       -6.57517        14.97815         4.76921
   C       -6.13854        15.97536         5.65284
   N       -5.40392        15.90264         6.85150
   O       -4.80943        16.90858         7.19438
   O       -5.41296        14.86889         7.50363
   C       -6.44758        17.26039         5.09835
   C       -7.12276        17.09711         3.93180
   C       -7.32895        15.69415         3.70975
   C       -8.18670        15.11523         2.80180
   C       -8.50549        13.71727         2.66312
   C       -9.14810        13.52920         1.48874
   C       -9.30638        14.80923         0.83423
   N      -10.07333        14.93496        -0.34435
   O      -10.66311        13.93706        -0.71866
   O      -10.12720        16.01411        -0.90596
   C       -8.81603        15.80818         1.65076
   C       -8.96176        17.22426         1.51027
   C       -8.70828        17.94794         0.39387
   C       -8.88230        19.34899         0.30618
   C       -9.65861        20.22004         0.98610
   C       -9.53587        21.60410         0.62686
   C       -8.64396        21.89313        -0.34067
   S       -7.89433        20.32682        -0.86375
   O       -6.51341        20.28251        -0.46606
   O       -8.20226        20.03164        -2.23134
   C       -8.22354        23.10928        -0.95692
   C       -8.64266        24.33277        -0.62408
   H       -8.26526        -0.91236         1.96898
   H       -7.58340        -1.01118        -0.55185
   H       -6.11007         0.88046        -1.32626
   H       -5.35282         3.44871         1.60382
   H       -4.49749         2.77669        -1.27344
   H       -1.99521         7.05998        -1.49098
   H       -2.04090         7.02991         1.16759
   H       -3.03953         2.46318         1.96021
   H       -2.33204         2.38387         4.50496
   H       -3.21667         7.20346         4.67236
   H       -4.42698         7.12011         1.84109
   H       -6.33049        10.00347         0.45977
   H       -5.89154         8.29657         0.68783
   H       -3.99452        10.59312        -0.04094
   H       -4.52717         9.30624        -1.12430
   H       -3.47158         8.92754         0.23969
   H       -4.22271        10.03184         8.12852
   H       -5.28726        11.45840         8.06808
   H       -2.29848        11.43482         7.38894
   H       -3.00071        12.03542         8.89276
   H       -3.33737        12.86916         7.37804
   H       -5.60838        13.14269         6.62016
   H       -6.27267        13.23380         3.62909
   H       -6.16163        18.18394         5.56561
   H       -7.45871        17.88715         3.29294
   H       -8.29036        12.95671         3.38439
   H       -9.51601        12.60956         1.07670
   H       -9.30552        17.74060         2.39828
   H       -8.26824        17.48233        -0.47571
   H      -10.37316        19.92367         1.73892
   H      -10.14802        22.34128         1.12249
   H       -7.50202        22.97297        -1.75153
   H       -9.35634        24.49613         0.16537
   H       -8.27982        25.20604        -1.13641
*
