# ORCA input file
# SCF done       -247.356737807247          0.000384116602
! CAM-B3LYP def2-SVP def2/J RIJCOSX Grid4 TightSCF
%maxcore 5000
%tddft
    Mode sTDDFT
    Ethresh 5.0
    maxcore 5000
end

%pal
  nprocs 6
  end
* xyz 0 1
   C      -11.87109         2.13456        -6.67002
   C      -13.00287         2.72040        -7.16275
   F      -12.92311         3.86502        -7.85244
   C      -14.26621         2.12992        -6.95286
   F      -15.35768         2.72697        -7.44793
   C      -14.37935         0.96252        -6.25152
   C      -13.23175         0.33386        -5.72915
   C      -11.95328         0.92976        -5.94238
   C      -10.78884         0.31825        -5.42754
   C      -10.90377        -0.85330        -4.72685
   C      -12.18364        -1.44561        -4.51999
   C      -13.32541        -0.87202        -4.99988
   C      -12.02342        -2.68621        -3.74081
   O      -12.85854        -3.30704        -3.13144
   C      -10.54210        -2.94420        -3.75626
   C       -9.89834        -1.67963        -4.07569
   C       -8.64059        -1.30305        -3.70040
   C       -8.05025        -0.06735        -4.03876
   N       -7.52721         0.91664        -4.30935
   C       -7.87699        -2.08873        -2.81465
   N       -7.29938        -2.69659        -2.03051
   C       -9.98093        -4.16552        -3.65434
   C      -10.75755        -5.36873        -3.51542
   C      -11.88643        -5.74052        -4.21840
   N      -12.48387        -5.12445        -5.33623
   O      -12.03006        -4.06544        -5.74966
   O      -13.41418        -5.70629        -5.85824
   C      -12.38638        -6.99751        -3.70542
   C      -11.54502        -7.43386        -2.74430
   C      -10.45019        -6.49463        -2.61550
   C       -9.35257        -6.62394        -1.79651
   C       -8.51862        -5.58241        -1.28173
   C       -7.84712        -6.06501        -0.20628
   C       -8.13819        -7.46522        -0.03820
   N       -7.69609        -8.12563         1.09346
   O       -7.12469        -7.47143         1.95884
   O       -7.97069        -9.31713         1.27063
   C       -8.97465        -7.87934        -1.08519
   C       -9.36026        -9.12224        -1.60686
   C       -9.17014       -10.37775        -1.09054
   C       -9.75272       -11.53134        -1.64180
   S      -11.00376       -11.47960        -2.88070
   C      -11.32077       -13.16277        -2.72142
   C      -10.49477       -13.74880        -1.81620
   C       -9.58871       -12.84712        -1.21842
   C       -8.66144       -13.47827        -0.30362
   C       -8.93502       -14.78281        -0.12880
   S      -10.39127       -15.40001        -1.03874
   O       -9.91773       -16.36989        -2.01844
   C       -7.52068       -12.71907         0.17547
   C       -7.20501       -12.50965         1.46550
   C       -6.22791       -11.58576         1.94967
   C       -5.57232       -10.53027         1.33432
   N       -5.51483       -10.15010        -0.01891
   O       -5.53340       -10.99973        -0.89402
   O       -5.46396        -8.95175        -0.24559
   C       -5.02778        -9.64152         2.34143
   C       -5.37745       -10.09748         3.56324
   C       -6.10810       -11.32871         3.39947
   C       -6.56954       -12.12602         4.41720
   C       -6.64186       -13.55753         4.44753
   C       -6.82589       -13.95258         5.73634
   C       -6.99285       -12.78877         6.56418
   N       -7.29696       -12.86602         7.94032
   O       -7.38266       -13.97681         8.42773
   O       -7.43957       -11.82671         8.55969
   C       -6.87924       -11.64967         5.78089
   C       -7.24073       -10.32283         6.10702
   C       -7.72256        -9.43145         5.19165
   C       -8.07602        -8.10918         5.52905
   C       -8.72741        -7.19610         4.75090
   C       -8.55869        -5.75179         5.08759
   O       -8.13068        -5.29804         6.12052
   C       -8.97940        -5.02495         3.87703
   C       -8.85418        -3.69498         3.60046
   C       -9.33525        -3.20233         2.36772
   C       -9.98849        -4.09412         1.46828
   C      -10.50670        -3.58491         0.25888
   C      -10.34616        -2.26363        -0.04713
   C       -9.67183        -1.38988         0.82760
   C       -9.18556        -1.84596         2.01936
   F       -9.52456        -0.10670         0.47680
   F      -10.82554        -1.76764        -1.19928
   C      -10.09229        -5.47027         1.78078
   C       -9.56423        -5.93957         2.95639
   C       -9.46862        -7.29242         3.51200
   C      -10.08780        -8.40322         2.99522
   C      -10.13476        -9.68493         3.58407
   N      -10.24993       -10.75289         3.98901
   C      -10.77927        -8.42207         1.76609
   N      -11.30523        -8.52208         0.74943
   H      -10.91280         2.60058        -6.83845
   H      -15.35306         0.52357        -6.10037
   H       -9.83163         0.78224        -5.60760
   H      -14.28584        -1.33536        -4.83459
   H       -8.90486        -4.27741        -3.70288
   H      -13.29320        -7.45362        -4.05248
   H      -11.70909        -8.26933        -2.09357
   H       -8.50543        -4.56102        -1.60248
   H       -7.18939        -5.52064         0.44423
   H       -9.87201        -9.07516        -2.55963
   H       -8.61403       -10.51636        -0.17459
   H      -12.08873       -13.61581        -3.31689
   H       -8.37071       -15.47332         0.46988
   H       -6.93872       -12.26724        -0.61836
   H       -7.80368       -12.98899         2.22837
   H       -4.45940        -8.76241         2.10363
   H       -5.08605        -9.68635         4.50935
   H       -6.41988       -14.19727         3.61517
   H       -6.85485       -14.95648         6.11668
   H       -7.24974       -10.06324         7.15877
   H       -7.83933        -9.73311         4.16153
   H       -7.71489        -7.72200         6.47754
   H       -8.39085        -3.02902         4.31210
   H      -11.03629        -4.23002        -0.42492
   H       -8.68147        -1.16627         2.68800
   H      -10.58457        -6.11792         1.07268
*
