# ORCA input file
# SCF done       -224.156087122340          0.000490111993
! CAM-B3LYP def2-SVP def2/J RIJCOSX Grid4 TightSCF
%maxcore 5000
%tddft
    Mode sTDDFT
    Ethresh 5.0
    maxcore 5000
end

%pal
  nprocs 6
  end
* xyz 0 1
   C      -13.38333        -9.67271        -3.56298
   C      -14.04901        -9.10763        -4.61425
   F      -15.28585        -9.51191        -4.92169
   C      -13.44301        -8.09572        -5.38843
   F      -14.11581        -7.56427        -6.41322
   C      -12.17900        -7.66378        -5.09821
   C      -11.46616        -8.22883        -4.02249
   C      -12.07750        -9.25136        -3.23883
   C      -11.38113        -9.83545        -2.15699
   C      -10.11412        -9.40401        -1.85854
   C       -9.51723        -8.37426        -2.63781
   C      -10.15889        -7.80464        -3.70065
   C       -8.19177        -8.04751        -2.08835
   O       -7.37505        -7.29144        -2.56871
   C       -8.05809        -8.86808        -0.85147
   C       -9.17730        -9.80521        -0.81497
   C       -9.32507       -10.87768         0.01772
   C       -8.37918       -11.29837         0.97848
   N       -7.65055       -11.70614         1.76585
   C      -10.43919       -11.74625        -0.00740
   N      -11.31624       -12.48528         0.01574
   C       -7.09907        -8.72218         0.08886
   C       -6.10991        -7.67116         0.13759
   C       -4.81368        -7.89341         0.51865
   S       -3.84916        -6.48165         0.45369
   C       -5.18779        -5.54425        -0.05170
   C       -6.32441        -6.28775        -0.17911
   C       -7.63400        -5.72629        -0.52672
   O       -8.70462        -6.16612        -0.18667
   O       -7.50381        -4.61335        -1.29135
   C       -8.62834        -4.11946        -1.86587
   C       -8.57569        -2.99590        -2.59723
   C       -9.63107        -2.35906        -3.31275
   N      -10.85055        -2.86136        -3.68901
   C      -11.38669        -4.18627        -3.49163
   C      -12.18927        -4.29884        -2.19772
   C      -11.60333        -1.91052        -4.41931
   O      -12.70367        -2.14835        -4.87095
   C      -10.75637        -0.74204        -4.47609
   C       -9.55541        -1.05725        -3.80120
   C       -8.68470         0.09811        -3.85438
   O       -7.57121         0.29870        -3.42226
   N       -9.43460         1.05332        -4.56773
   C       -8.87629         2.34387        -4.89235
   C       -8.37492         2.39924        -6.33347
   C      -10.66622         0.57152        -4.94992
   C      -11.61706         1.32456        -5.66989
   C      -12.81652         0.81071        -6.07248
   C      -13.79084         1.52842        -6.79888
   C      -14.98704         1.01336        -7.26458
   C      -15.69405         2.02291        -7.96871
   C      -14.85303         3.23662        -7.89500
   C      -13.72782         2.93020        -7.20307
   C      -15.14556         4.50277        -8.41572
   N      -15.34459         5.56117        -8.81488
   C      -16.89863         1.91109        -8.62743
   C      -17.55687         2.90802        -9.40600
   C      -18.67152         2.35585        -9.99800
   C      -18.78300         0.97806        -9.53997
   C      -17.74047         0.70858        -8.71056
   C      -17.54768        -0.50633        -8.04245
   N      -17.43364        -1.51390        -7.50360
   C      -19.57765         3.02427       -10.86214
   C      -20.40711         2.46927       -11.78657
   C      -21.58502         3.22725       -12.29497
   O      -21.80470         4.40637       -12.15210
   C      -22.44009         2.21396       -12.94795
   C      -23.69127         2.35951       -13.47414
   C      -24.33638         1.23387       -14.03374
   C      -23.67168        -0.02713       -14.03130
   C      -24.32412        -1.14705       -14.58496
   C      -25.57569        -1.02045       -15.11895
   C      -26.23149         0.22737       -15.12238
   C      -25.62605         1.33171       -14.59159
   F      -27.45833         0.32148       -15.65162
   F      -26.19366        -2.08493       -15.64601
   C      -22.37334        -0.14678       -13.48509
   C      -21.76385         0.95993       -12.95733
   C      -20.43961         1.14485       -12.37014
   C      -19.36042         0.32209       -12.56032
   C      -18.03525         0.67877       -12.22988
   N      -16.93437         0.95004       -12.05191
   C      -19.43736        -0.92721       -13.21003
   N      -19.46289        -1.95659       -13.71638
   H      -13.86114       -10.44691        -2.98323
   H      -11.72911        -6.89174        -5.70254
   H      -11.87182       -10.60629        -1.58510
   H       -9.67178        -7.04183        -4.28985
   H       -7.04313        -9.43392         0.90245
   H       -4.37309        -8.83257         0.79055
   H       -5.08265        -4.48915        -0.20842
   H       -9.52066        -4.69769        -1.66518
   H       -7.63416        -2.46462        -2.64854
   H      -10.56912        -4.90910        -3.51790
   H      -12.05828        -4.37164        -4.33617
   H      -11.59392        -4.01311        -1.33369
   H      -12.53058        -5.32237        -2.06590
   H      -13.05689        -3.64610        -2.24798
   H       -8.03669         2.48908        -4.20687
   H       -9.61988         3.12387        -4.70583
   H       -7.60101         1.65092        -6.48500
   H       -7.95443         3.37949        -6.53958
   H       -9.18176         2.20826        -7.03777
   H      -11.36443         2.34752        -5.90717
   H      -13.05493        -0.21891        -5.83982
   H      -15.32228         0.00358        -7.13032
   H      -12.92628         3.61023        -6.98247
   H      -17.19782         3.90660        -9.56029
   H      -19.59370         0.31163        -9.77199
   H      -19.66827         4.09814       -10.73234
   H      -24.18244         3.32058       -13.46403
   H      -23.83493        -2.10855       -14.59350
   H      -26.14131         2.27940       -14.60182
   H      -21.89553        -1.11362       -13.48913
*
