# ORCA input file
# SCF done       -232.725362843890          0.000732803767
! CAM-B3LYP def2-SVP def2/J RIJCOSX Grid4 TightSCF
%maxcore 5000
%tddft
    Mode sTDDFT
    Ethresh 5.0
    maxcore 5000
end

%pal
  nprocs 6
  end
* xyz 0 1
   C       -3.54653        -2.25063         7.95932
   C       -4.44988        -1.26802         8.25357
   F       -4.19819        -0.39426         9.23701
   C       -5.65422        -1.16050         7.52958
   F       -6.52185        -0.18739         7.83975
   C       -5.93862        -2.03767         6.52085
   C       -5.02814        -3.06141         6.19406
   C       -3.80936        -3.17088         6.92478
   C       -2.87927        -4.18957         6.61341
   C       -3.16292        -5.07287         5.60598
   C       -4.38702        -4.96158         4.88762
   C       -5.30067        -3.98476         5.16029
   C       -4.46103        -6.03881         3.88319
   O       -5.34470        -6.20554         3.06425
   C       -3.26396        -6.86829         4.09695
   C       -2.41006        -6.19923         5.06088
   C       -1.10316        -6.49917         5.33495
   C       -0.34288        -7.47509         4.65244
   N        0.35065        -8.20273         4.09965
   C       -0.32264        -5.80236         6.28109
   N        0.34966        -5.27273         7.04586
   C       -3.07608        -8.13318         3.61076
   C       -3.86377        -8.85936         2.70036
   S       -5.18481        -8.27907         1.70902
   C       -5.41145        -9.83250         0.94128
   C       -4.50473       -10.76575         1.45888
   C       -3.65162       -10.20808         2.42474
   C       -2.73352       -11.21088         2.97312
   O       -1.95007       -11.08133         3.88009
   C       -3.00195       -12.47971         2.18151
   C       -4.18524       -12.18250         1.26816
   O       -4.72173       -12.99487         0.55179
   C       -6.43628        -9.94551        -0.01947
   C       -6.81642       -11.10169        -0.63279
   C       -7.86092       -11.18664        -1.56913
   S       -8.75117        -9.82159        -2.18802
   C       -9.77340       -10.81907        -3.16430
   C       -9.41849       -12.17140        -3.01277
   C       -8.33488       -12.38289        -2.12846
   N       -7.86666       -13.62115        -1.88567
   C       -8.47054       -14.60265        -2.50674
   O       -8.05559       -15.85068        -2.32791
   C       -6.95769       -16.02755        -1.42859
   C       -6.62170       -17.50598        -1.38140
   C       -9.58830       -14.39665        -3.39921
   C      -10.21405       -15.57207        -4.07785
   N      -11.56407       -15.29801        -4.51636
   N      -10.03252       -13.19306        -3.63762
   C      -10.83754       -10.42213        -3.99601
   S      -11.77217       -11.67739        -4.74902
   C      -11.31214        -9.15819        -4.35572
   C      -10.72071        -7.91294        -3.87886
   O       -9.77245        -7.86393        -3.10129
   C      -11.36692        -6.72856        -4.40674
   C      -11.10732        -5.39652        -4.16651
   N      -11.98037        -4.65117        -4.88415
   C      -11.98479        -3.21098        -4.94760
   C      -11.06394        -2.71009        -6.05843
   C      -12.79260        -5.46485        -5.59766
   C      -12.45111        -6.77336        -5.32760
   C      -13.03334        -8.00271        -5.82879
   O      -13.91199        -8.02765        -6.67810
   C      -12.44535        -9.21022        -5.21458
   C      -12.84614       -10.51174        -5.48490
   C      -13.91145       -11.05648        -6.24966
   C      -15.16296       -10.60667        -6.51944
   C      -15.91895       -11.25844        -7.62796
   O      -15.65660       -12.31192        -8.15905
   C      -17.00664       -10.31752        -7.95869
   C      -17.90755       -10.37423        -8.98277
   C      -18.84678        -9.32899        -9.12949
   C      -18.82760        -8.23855        -8.21178
   C      -19.76158        -7.19467        -8.36980
   C      -20.67223        -7.23243        -9.38786
   C      -20.69118        -8.31194       -10.29352
   C      -19.79835        -9.33898       -10.16805
   F      -21.59516        -8.32220       -11.28322
   F      -21.55933        -6.23863        -9.53519
   C      -17.88660        -8.21075        -7.15740
   C      -16.99267        -9.23976        -7.02796
   C      -15.94487        -9.48548        -6.04193
   C      -15.86472        -8.89150        -4.81182
   C      -14.97828        -9.29711        -3.79561
   N      -14.30100        -9.59922        -2.91923
   C      -16.67229        -7.81103        -4.40334
   N      -17.28024        -6.91352        -4.02539
   H       -2.62890        -2.31780         8.52259
   H       -6.86510        -1.94263         5.97650
   H       -1.96809        -4.25004         7.18641
   H       -6.21984        -3.92014         4.59811
   H       -2.23833        -8.70599         3.99554
   H       -3.20697       -13.32814         2.83705
   H       -2.12461       -12.74790         1.58809
   H       -6.96240        -9.02876        -0.25636
   H       -6.32403       -12.03707        -0.39867
   H       -7.24356       -15.64805        -0.44205
   H       -6.10917       -15.43164        -1.78044
   H       -7.48135       -18.07634        -1.03999
   H       -5.79401       -17.66714        -0.69765
   H       -6.34046       -17.86015        -2.36948
   H      -10.23063       -16.41320        -3.37550
   H       -9.52665       -15.85879        -4.89731
   H      -11.62316       -14.36311        -4.90227
   H      -11.86050       -15.96626        -5.21709
   H      -10.36850        -4.95432        -3.52817
   H      -11.65381        -2.82008        -3.98233
   H      -13.00847        -2.87455        -5.12922
   H      -10.04364        -3.04278        -5.88387
   H      -11.07643        -1.62451        -6.08938
   H      -11.39142        -3.09061        -7.02292
   H      -13.56498        -5.08366        -6.23585
   H      -13.68311       -12.01394        -6.71329
   H      -17.90270       -11.20356        -9.67369
   H      -19.76309        -6.36251        -7.68325
   H      -19.82561       -10.15788       -10.86977
   H      -17.88656        -7.36876        -6.48410
*
