# ORCA input file
# SCF done       -170.385598127459          0.000743668542
! CAM-B3LYP def2-SVP def2/J RIJCOSX Grid4 TightSCF
%maxcore 5000
%tddft
    Mode sTDDFT
    Ethresh 5.0
    maxcore 5000
end

%pal
  nprocs 6
  end
* xyz 0 1
   C        2.60549        -0.72704         0.07435
   S        2.21699        -2.36740        -0.16267
   C        0.95883        -2.32051         1.05196
   C        0.87502        -1.05451         1.59852
   C        1.81944        -0.15408         1.03222
   N        2.02586         1.19580         1.48709
   O        2.57181         1.94940         0.71714
   O        1.67780         1.44904         2.61512
   N       -0.15704        -0.59762         2.50355
   O       -0.32365        -1.21423         3.52660
   O       -0.79554         0.35183         2.12365
   C        0.17899        -3.49641         1.27786
   S        0.20226        -4.75797         0.07052
   C       -0.88680        -5.74537         0.99818
   C       -1.22377        -5.10021         2.19099
   C       -0.62084        -3.84216         2.34438
   C       -2.07162        -5.66670         3.16319
   N       -2.74729        -6.11323         3.97306
   C       -1.34142        -7.00833         0.56051
   C       -0.92135        -7.59528        -0.59422
   C       -1.39695        -8.84643        -1.04270
   N       -0.95228        -9.47557        -2.18093
   C        0.10429        -9.02976        -3.05724
   C        1.48552        -9.27559        -2.45557
   C       -1.61514       -10.69538        -2.40110
   O       -1.38151       -11.42354        -3.34450
   C       -2.55094       -10.79926        -1.30016
   C       -2.38853        -9.66074        -0.48600
   C       -3.34210        -9.74661         0.60395
   O       -3.56759        -9.00679         1.53721
   N       -4.03365       -10.94428         0.36409
   C       -5.05715       -11.40952         1.27200
   C       -4.53630       -12.49806         2.20598
   C       -3.57907       -11.58897        -0.76085
   C       -4.11417       -12.79826        -1.24517
   C       -3.63108       -13.42545        -2.35944
   C       -4.16321       -14.62132        -2.88817
   C       -5.24257       -15.36902        -2.45445
   C       -5.42195       -16.48112        -3.31853
   C       -4.35254       -16.38755        -4.33683
   C       -3.61743       -15.27979        -4.07168
   C       -4.12822       -17.27598        -5.39496
   N       -3.92565       -17.99141        -6.27043
   C       -6.40463       -17.44384        -3.25010
   C       -6.59767       -18.55028        -4.12993
   C       -7.70535       -19.26053        -3.72955
   C       -8.26135       -18.60555        -2.55614
   C       -7.49046       -17.52262        -2.26281
   C       -7.71026       -16.63997        -1.19940
   N       -7.89271       -15.92118        -0.32203
   C       -8.19650       -20.42794        -4.39300
   S       -7.46659       -20.89952        -5.91522
   C       -8.45731       -22.27308        -6.04327
   C       -9.31271       -22.38698        -4.98017
   C       -9.17001       -21.33624        -4.03632
   N       -9.89542       -21.33020        -2.77656
   O      -10.67002       -20.42848        -2.58475
   O       -9.60882       -22.21443        -2.01030
   N      -10.30783       -23.41366        -4.88762
   O      -10.18505       -24.36516        -5.62372
   O      -11.20795       -23.23226        -4.09959
   H        3.39766        -0.25121        -0.46983
   H       -0.75634        -3.23032         3.21880
   H       -2.06318        -7.50752         1.19659
   H       -0.19081        -7.08271        -1.20696
   H       -0.03688        -7.97071        -3.29097
   H       -0.00326        -9.60998        -3.97783
   H        1.60446        -8.74244        -1.51488
   H        2.25186        -8.93917        -3.14804
   H        1.62693       -10.33757        -2.27118
   H       -5.91822       -11.76552         0.70047
   H       -5.35909       -10.53722         1.85794
   H       -4.18280       -13.36071         1.64542
   H       -5.33268       -12.81804         2.87138
   H       -3.71572       -12.11302         2.80640
   H       -4.94438       -13.23285        -0.70810
   H       -2.79224       -12.99038        -2.88709
   H       -5.86709       -15.15869        -1.60990
   H       -2.76856       -14.92113        -4.62388
   H       -5.96710       -18.78700        -4.96458
   H       -9.14839       -18.89735        -2.02807
   H       -8.40001       -22.93661        -6.88410
*
