# ORCA input file
# SCF done       -168.951817378135          0.000396073198
! CAM-B3LYP def2-SVP def2/J RIJCOSX Grid4 TightSCF
%maxcore 5000
%tddft
    Mode sTDDFT
    Ethresh 5.0
    maxcore 5000
end

%pal
  nprocs 6
  end
* xyz 0 1
   C        0.90058         2.03748        -6.65167
   S        2.18815         2.22017        -5.54271
   C        2.87569         0.70959        -6.04362
   C        4.12592         0.24504        -5.50651
   O        4.70513        -0.76155        -5.84920
   C        2.11084         0.11240        -7.03981
   C        0.98530         0.89169        -7.38173
   C        2.47106        -1.15632        -7.63678
   C        2.83626        -1.38530        -8.93876
   N        2.89344        -0.44376        -9.98538
   O        2.58657         0.71169        -9.74205
   O        3.25200        -0.84297       -11.07795
   C        3.26265        -2.76380        -9.08052
   C        3.21014        -3.35685        -7.86625
   C        2.70262        -2.41148        -6.90523
   C        2.36439        -2.59707        -5.57883
   C        1.37910        -1.83361        -4.87889
   C        1.25945        -2.31562        -3.61184
   C        2.22075        -3.35517        -3.41543
   N        2.23915        -4.07174        -2.20673
   O        2.88870        -5.10511        -2.12325
   O        1.56786        -3.62834        -1.28955
   C        2.93693        -3.55282        -4.60879
   C        4.09896        -4.29631        -4.87273
   C        4.96821        -4.78157        -3.92714
   C        6.07773        -5.57903        -4.23804
   N        7.00354        -5.98136        -3.30735
   C        6.96739        -5.71270        -1.88710
   C        5.93441        -6.57677        -1.16807
   C        8.01764        -6.76712        -3.87064
   O        8.95122        -7.22300        -3.24613
   C        7.66224        -6.85584        -5.27802
   C        6.47841        -6.13054        -5.47312
   C        6.09631        -6.26555        -6.86554
   O        5.14381        -5.84881        -7.49157
   N        7.10142        -7.06654        -7.42776
   C        7.09841        -7.38330        -8.83650
   C        8.04669        -6.48185        -9.62278
   C        8.05452        -7.42538        -6.50465
   C        9.17974        -8.21062        -6.80296
   C       10.14275        -8.51814        -5.87866
   C       11.29995        -9.27108        -6.15871
   C       12.32458        -9.53467        -5.26117
   C       13.33580       -10.29028        -5.90811
   C       12.86347       -10.50252        -7.29002
   C       11.65878        -9.89102        -7.42693
   C       13.51685       -11.20577        -8.30867
   N       14.01895       -11.77491        -9.17108
   C       14.53535       -10.72983        -5.38696
   C       15.54867       -11.46798        -6.05665
   C       16.59519       -11.68929        -5.18788
   C       16.25511       -11.08091        -3.90989
   C       15.02961       -10.50574        -4.01374
   C       14.37484        -9.82110        -2.98355
   N       13.86942        -9.26631        -2.11431
   C       17.80804       -12.37589        -5.45394
   S       19.03263       -12.54649        -4.23342
   C       20.05311       -13.41865        -5.32272
   C       21.35224       -13.90149        -4.90631
   O       22.11324       -14.51354        -5.61479
   C       19.45938       -13.56205        -6.56458
   C       18.20165       -12.97880        -6.64068
   H        0.14485         2.79578        -6.71400
   H        4.54311         0.90858        -4.72555
   H        0.27257         0.60634        -8.13335
   H        3.56509        -3.19494       -10.01529
   H        3.42315        -4.38920        -7.67650
   H        0.75785        -1.08215        -5.32507
   H        0.56328        -2.00400        -2.85600
   H        4.35621        -4.44322        -5.90984
   H        4.81834        -4.54345        -2.88750
   H        6.77043        -4.65004        -1.72284
   H        7.96847        -5.94660        -1.51395
   H        4.92420        -6.36161        -1.50833
   H        5.98709        -6.38642        -0.09990
   H        6.14448        -7.62938        -1.34165
   H        6.07282        -7.22390        -9.18046
   H        7.35375        -8.43752        -8.97378
   H        7.74773        -5.44249        -9.51243
   H        8.01114        -6.74246       -10.67675
   H        9.07055        -6.58563        -9.27010
   H        9.28175        -8.56706        -7.81751
   H       10.03696        -8.15463        -4.86452
   H       12.35227        -9.20831        -4.23988
   H       11.06749        -9.87492        -8.32335
   H       15.49405       -11.79085        -7.07647
   H       16.88725       -11.09688        -3.04128
   H       21.60364       -13.65605        -3.85654
   H       19.94905       -14.07892        -7.37026
   H       17.58506       -12.98547        -7.52092
*
