# ORCA input file
# SCF done       -192.717932488736          0.000543945006
! CAM-B3LYP def2-SVP def2/J RIJCOSX Grid4 TightSCF
%maxcore 5000
%tddft
    Mode sTDDFT
    Ethresh 5.0
    maxcore 5000
end

%pal
  nprocs 6
  end
* xyz 0 1
   C       -4.00823        13.50931        13.66158
   S       -4.39390        13.13430        12.02954
   C       -3.05448        14.08574        11.44982
   C       -2.35779        14.63431        12.50396
   C       -2.90199        14.29776        13.77227
   S       -2.27514        14.72135        15.36319
   C       -1.58853        16.41261        15.13863
   C       -2.31012        17.23241        14.07755
   C       -1.55639        17.25074        12.75337
   S       -0.90560        15.60881        12.26714
   C       -2.75992        14.23130        10.06214
   C       -3.48350        13.67450         9.07414
   C       -3.23474        13.77757         7.65610
   C       -4.15970        13.19389         6.77468
   C       -3.95683        13.26392         5.41777
   C       -2.84248        13.95256         4.90696
   C       -1.91662        14.52729         5.76547
   C       -2.11323        14.42910         7.12740
   C       -2.92048        13.95390         3.46215
   C       -4.08795        13.27570         3.07812
   C       -4.80100        12.71273         4.29011
   C       -6.26236        13.17449         4.37568
   C       -6.39110        14.69312         4.34504
   C       -4.69314        11.17229         4.19455
   C       -5.17115        10.39507         5.41377
   C       -4.42396        13.16458         1.75075
   C       -3.58815        13.71677         0.76984
   C       -2.42775        14.38818         1.17070
   C       -2.08991        14.51399         2.50318
   C       -3.96500        13.57867        -0.62457
   C       -3.14890        13.73822        -1.67473
   C       -3.52935        13.54241        -3.06774
   C       -2.95489        14.26714        -4.12225
   N       -2.09328        15.35120        -4.08342
   C       -2.11382        16.30368        -2.99121
   C       -2.66144        17.66374        -3.41969
   C       -1.69657        15.63004        -5.38201
   C       -2.37718        14.76297        -6.26872
   C       -3.18550        13.89375        -5.46321
   C       -4.05768        12.86201        -5.77940
   C       -4.68865        12.20060        -4.74433
   C       -4.41599        12.52661        -3.42290
   C       -2.20463        14.84699        -7.64199
   C       -1.33154        15.79999        -8.13294
   C       -0.61575        16.61152        -7.27101
   C       -0.74140        16.54410        -5.87581
   C        0.12663        17.30392        -5.01732
   C        0.94310        18.32785        -5.38215
   C        1.79381        18.98828        -4.47650
   C        2.65945        19.99628        -4.81578
   C        3.52942        20.70265        -3.95021
   C        4.29476        21.64494        -4.56788
   C        4.08046        21.73759        -5.96002
   S        2.85577        20.58897        -6.46041
   C        4.71176        22.57388        -6.86017
   C        5.70213        23.54483        -6.59347
   C        6.13636        24.20779        -7.69975
   C        5.52312        23.80449        -8.91388
   S        4.35363        22.53458        -8.57219
   C        5.80610        24.33019       -10.14703
   C        5.27145        23.99641       -11.41005
   C        5.63588        24.62901       -12.60653
   C        4.91458        24.04533       -13.67278
   C        4.90537        24.30024       -15.02921
   C        4.06093        23.52330       -15.83286
   C        3.82410        23.52599       -17.20415
   C        2.86478        22.51968       -17.51621
   C        2.50301        21.89052       -16.33380
   C        3.22542        22.48589       -15.25816
   C        3.22936        22.23033       -13.90945
   C        4.07614        23.00968       -13.09868
   C        4.30145        22.99231       -11.73160
   C        2.39537        22.25190       -18.85505
   C        1.51615        21.31273       -19.19368
   H       -4.59933        13.10646        14.45859
   H       -0.52732        16.31500        14.90947
   H       -1.69754        16.85494        16.12817
   H       -2.41705        18.26498        14.41991
   H       -3.31704        16.83569        13.92467
   H       -0.66673        17.87700        12.81834
   H       -2.19291        17.61412        11.94583
   H       -1.88859        14.83505         9.85111
   H       -4.34939        13.08444         9.35347
   H       -5.03459        12.70983         7.18351
   H       -1.05573        15.04924         5.37451
   H       -1.38880        14.86907         7.79495
   H       -6.70373        12.79922         5.29989
   H       -6.81823        12.74488         3.53938
   H       -5.85679        15.13843         5.18158
   H       -7.43734        14.98364         4.40996
   H       -5.97772        15.09533         3.42272
   H       -3.64499        10.92182         4.00989
   H       -5.26574        10.85374         3.32023
   H       -4.55770        10.62068         6.28167
   H       -5.09262         9.32844         5.21361
   H       -6.20940        10.61780         5.64550
   H       -5.32442        12.64846         1.44805
   H       -1.78963        14.83741         0.42461
   H       -1.19440        15.04422         2.79210
   H       -5.00178        13.31941        -0.79938
   H       -2.10435        13.96954        -1.51095
   H       -1.11852        16.41309        -2.54765
   H       -2.77709        15.89863        -2.22456
   H       -2.00401        18.15458        -4.13221
   H       -2.76499        18.30270        -2.54622
   H       -3.64002        17.53987        -3.87861
   H       -4.22959        12.58363        -6.80771
   H       -5.37707        11.39648        -4.95790
   H       -4.86684        11.94103        -2.63576
   H       -2.73615        14.17994        -8.30293
   H       -1.18040        15.89607        -9.19780
   H        0.09962        17.30039        -7.69107
   H        0.16903        16.99823        -3.98257
   H        0.95956        18.68890        -6.40117
   H        1.77555        18.68267        -3.43785
   H        3.56087        20.48926        -2.89598
   H        5.00876        22.26999        -4.06175
   H        6.06419        23.72776        -5.59760
   H        6.88604        24.97985        -7.68747
   H        6.55173        25.11732       -10.15369
   H        6.34773        25.42913       -12.69830
   H        5.52712        25.07096       -15.46329
   H        4.28539        24.17854       -17.92454
   H        1.79806        21.08764       -16.22526
   H        2.60946        21.45972       -13.47283
   H        3.82960        22.33156       -11.02880
   H        2.81907        22.88726       -19.62373
   H        1.07240        20.65610       -18.46503
   H        1.21241        21.16582       -20.21573
*
