# ORCA input file
# SCF done       -210.673494209740          0.000955800665
! CAM-B3LYP def2-SVP def2/J RIJCOSX Grid4 TightSCF
%maxcore 5000
%tddft
    Mode sTDDFT
    Ethresh 5.0
    maxcore 5000
end

%pal
  nprocs 6
  end
* xyz 0 1
   C       -7.87258        -2.09256         3.48245
   C       -7.07536        -3.12767         3.06836
   C       -7.09826        -4.41860         3.63545
   N       -7.07706        -5.48553         4.05850
   C       -6.09460        -3.02576         2.05844
   N       -5.25530        -3.00998         1.27544
   C       -8.79716        -2.11664         4.60744
   C       -9.31123        -0.80940         4.80263
   C      -10.20468        -0.50966         5.80301
   C      -10.60494        -1.54369         6.65446
   C      -10.08963        -2.84631         6.44859
   C       -9.18994        -3.15206         5.43420
   S      -10.72754        -3.96530         7.61105
   C      -11.65638        -2.70681         8.34942
   C      -11.50259        -1.50181         7.75840
   C       -8.76473         0.09643         3.77799
   O       -9.09020         1.24845         3.58519
   C       -7.85482        -0.74424         2.95024
   C       -7.28439        -0.33099         1.78502
   C       -7.10184         1.03326         1.41795
   C       -7.21173         1.44197         0.07042
   C       -7.07545         2.81974        -0.32774
   N       -7.30652         3.16369        -1.58985
   C       -7.62756         2.24241        -2.47793
   C       -7.72376         0.87110        -2.08518
   N       -7.52871         0.50845        -0.84381
   C       -8.09120        -0.09801        -3.05548
   N       -8.43719        -0.82957        -3.86510
   C       -7.89333         2.60033        -3.81554
   N       -8.09210         2.81010        -4.92705
   C       -6.75854         3.84873         0.61032
   C       -6.59609         3.41106         1.95737
   C       -6.74867         2.03507         2.34991
   N       -6.46994         1.85460         3.63909
   S       -6.11118         3.26999         4.29981
   N       -6.25161         4.18465         2.98196
   C       -6.59501         5.20759         0.33445
   C       -6.51421         5.91036        -0.85734
   C       -6.26731         7.30403        -0.89354
   C       -6.10599         7.81807        -2.15012
   C       -6.20357         6.83565        -3.14864
   S       -6.57765         5.27034        -2.47573
   C       -6.04435         6.95999        -4.52917
   C       -5.92546         8.11971        -5.31147
   C       -5.80915         7.84126        -6.64537
   C       -5.81841         6.46119        -6.95871
   S       -5.93920         5.51619        -5.50231
   C       -5.80436         6.00116        -8.26707
   C       -5.89307         4.71742        -8.80357
   C       -5.87313         3.48533        -8.08143
   C       -6.10042         2.21949        -8.72803
   N       -6.08069         1.08991        -8.00143
   C       -5.82648         1.15437        -6.72001
   C       -5.55809         2.40442        -6.08285
   N       -5.59250         3.52170        -6.78397
   C       -5.20584         2.42754        -4.71668
   N       -4.94512         2.36789        -3.60005
   C       -5.75771        -0.03451        -5.94718
   N       -5.65411        -0.95560        -5.27540
   C       -6.37185         2.11404       -10.11481
   C       -6.25925         3.31511       -10.85660
   C       -6.01876         4.58174       -10.21673
   N       -5.94285         5.57631       -11.09309
   S       -6.13348         4.98721       -12.57830
   N       -6.32818         3.43927       -12.18116
   C       -6.65145         0.84160       -10.67656
   C       -7.26426         0.51894       -11.84906
   C       -8.07190         1.27044       -12.78089
   C       -8.85710         2.35645       -12.48869
   C       -9.65990         3.02746       -13.43177
   N      -10.30757         3.63429       -14.16039
   C       -8.98915         2.91108       -11.20131
   N       -9.13843         3.40252       -10.17407
   C       -8.08713         0.53234       -14.03814
   C       -7.50139        -0.74261       -13.82582
   C       -7.04201        -0.83988       -12.42796
   O       -6.54261        -1.78983       -11.87275
   C       -7.40065        -1.68200       -14.82341
   C       -7.88978        -1.34555       -16.08964
   C       -8.45938        -0.06569       -16.29405
   C       -8.56968         0.88284       -15.28362
   S       -8.98381         0.13336       -17.93610
   C       -8.45270        -1.46639       -18.32601
   C       -7.90507        -2.12440       -17.28130
   H      -10.58058         0.49432         5.92585
   H       -8.83176        -4.16073         5.31208
   H      -12.27079        -2.95179         9.19394
   H      -12.00125        -0.60538         8.07999
   H       -6.97284        -1.05686         1.04425
   H       -6.45153         5.80911         1.22591
   H       -6.20401         7.88422         0.01045
   H       -5.89926         8.85192        -2.36267
   H       -5.95311         9.11198        -4.89746
   H       -5.73150         8.58914        -7.41506
   H       -5.77130         6.77968        -9.02186
   H       -6.27846        -0.00208       -10.10284
   H       -6.95806        -2.64730       -14.63249
   H       -9.00519         1.84733       -15.48643
   H       -8.58565        -1.81938       -19.33019
   H       -7.52027        -3.12665       -17.33579
*
