# ORCA input file
# SCF done       -208.671310993436          0.000711639225
! CAM-B3LYP def2-SVP def2/J RIJCOSX Grid4 TightSCF
%maxcore 5000
%tddft
    Mode sTDDFT
    Ethresh 5.0
    maxcore 5000
end

%pal
  nprocs 6
  end
* xyz 0 1
   C       -7.53392        -3.63916         0.97224
   C       -8.54825        -4.55443         0.87900
   C       -8.34706        -5.94554         0.75945
   N       -8.23951        -7.08440         0.66641
   C       -9.92227        -4.23302         0.84728
   N      -11.05429        -4.04919         0.79408
   C       -6.11010        -3.93209         0.89763
   C       -5.39817        -2.70877         0.85538
   C       -4.02743        -2.65187         0.78031
   C       -3.32530        -3.86076         0.74651
   C       -4.04508        -5.07917         0.79499
   C       -5.43085        -5.13655         0.86975
   S       -2.98099        -6.45194         0.75204
   C       -1.60328        -5.38625         0.66722
   C       -1.92114        -4.06978         0.67184
  Br        0.12399        -6.11195         0.58409
   C       -6.34465        -1.57658         0.91491
   O       -6.04844        -0.40221         0.90645
   C       -7.68868        -2.19520         1.07071
   C       -8.81416        -1.55575         1.48575
   C       -9.03625        -0.13694         1.55667
   C       -8.53232         0.74605         0.58898
   C       -8.76135         2.09310         0.72548
   C       -9.44615         2.58745         1.85207
   C       -9.99108         1.71727         2.78926
   C       -9.80959         0.36296         2.61708
   C       -9.41798         4.03020         1.81291
   C       -8.72940         4.43208         0.65408
   C       -8.33568         3.22875        -0.17565
   C       -6.83293         3.20323        -0.48820
   C       -5.97584         3.18262         0.77196
   C       -9.18627         3.27619        -1.46881
   C       -9.13137         2.02953        -2.34163
   C       -8.52962         5.76391         0.39241
   C       -8.98787         6.73415         1.30183
   C       -9.68122         6.31297         2.44850
   C       -9.90332         4.97780         2.70589
   C       -8.72679         8.11789         1.01547
   C       -8.86391         9.15316         1.88108
   C       -8.58852        10.50305         1.52833
   C       -8.61189        11.56561         2.42733
   O       -8.36172        12.86361         2.03171
   C       -8.06294        13.04882         0.71659
   C       -8.02135        11.95704        -0.19518
   C       -7.70397        12.33939        -1.45872
   S       -7.45250        14.04069        -1.54802
   C       -7.77751        14.23848         0.13284
   O       -8.28437        10.68041         0.20089
   C       -8.86173        11.44677         3.80381
   C       -8.84064        12.50164         4.69081
   C       -9.06104        12.40988         6.08433
   C       -8.96327        13.60002         6.74348
   C       -8.66562        14.68933         5.89847
   S       -8.51172        14.16036         4.24347
   C       -8.50377        16.01912         6.26258
   C       -8.56483        16.57779         7.55309
   C       -8.36008        17.92889         7.57748
   C       -8.13120        18.49871         6.30818
   S       -8.18374        17.26271         5.07561
   C       -7.92159        19.83995         6.03510
   C       -7.69698        20.33720         4.76005
   C       -7.53267        21.65204         4.36921
   C       -7.78553        22.89496         5.03939
   C       -8.68211        23.12913         6.05931
   C       -8.88239        24.38743         6.65700
   N       -9.06892        25.38198         7.20201
   C       -9.59248        22.17834         6.55824
   N      -10.39491        21.46847         6.97378
   C       -7.07820        23.94284         4.30008
   C       -6.56928        23.38456         3.10147
   C       -6.88004        21.93850         3.07534
   O       -6.62043        21.14492         2.19452
   C       -5.89095        24.12891         2.16926
   C       -5.69383        25.48872         2.43713
   C       -6.19228        26.03265         3.64255
   C       -6.88783        25.28043         4.58308
   S       -5.82835        27.72716         3.77805
   C       -5.02629        27.68142         2.23064
   C       -5.02745        26.46241         1.64258
  Br       -4.25984        29.24841         1.53864
   H       -3.51346        -1.70392         0.74874
   H       -5.93395        -6.08813         0.91135
   H       -1.19646        -3.27751         0.62594
   H       -9.62717        -2.16433         1.86575
   H       -7.98628         0.35665        -0.25335
   H      -10.54386         2.09449         3.63631
   H      -10.22181        -0.33183         3.33457
   H       -6.58745         4.08288        -1.08762
   H       -6.60289         2.31706        -1.07947
   H       -6.22589         4.01579         1.42601
   H       -4.92396         3.25664         0.50637
   H       -6.12412         2.25267         1.31452
   H       -8.85264         4.13738        -2.05207
   H      -10.22603         3.45534        -1.18180
   H       -8.11187         1.79302        -2.63392
   H       -9.71001         2.19953        -3.24712
   H       -9.55836         1.17431        -1.82467
   H       -8.00268         6.08242        -0.49541
   H      -10.06442         7.05021         3.13676
   H      -10.44289         4.67355         3.59027
   H       -8.35702         8.33326         0.02214
   H       -9.18346         8.97237         2.89274
   H       -7.60696        11.72472        -2.32886
   H       -7.74124        15.20459         0.59069
   H       -9.06809        10.47154         4.21065
   H       -9.28231        11.46910         6.55671
   H       -9.10058        13.71601         7.80322
   H       -8.75246        15.98047         8.42701
   H       -8.37758        18.53240         8.46719
   H       -7.91859        20.50637         6.88494
   H       -7.54636        19.61219         3.96487
   H       -5.52275        23.67876         1.26071
   H       -7.24630        25.74115         5.48852
   H       -4.57805        26.25520         0.68854
*
