# ORCA input file
# SCF done       -219.083720383984          0.000555415051
! CAM-B3LYP def2-SVP def2/J RIJCOSX Grid4 TightSCF
%maxcore 5000
%tddft
    Mode sTDDFT
    Ethresh 5.0
    maxcore 5000
end

%pal
  nprocs 6
  end
* xyz 0 1
   C       -3.31779        -0.14129         0.52495
   O       -2.82379        -0.83757        -0.33209
   C       -3.15057         1.32462         0.64990
   C       -3.90883         1.80563         1.73018
   C       -3.89796         3.16341         2.02161
   C       -3.13031         4.00891         1.23637
   C       -2.38560         3.50945         0.17491
   C       -2.38544         2.15780        -0.13999
  Br       -1.34431         4.70752        -0.86848
   C       -4.59307         0.68154         2.35987
   C       -5.34113         0.75031         3.50449
   C       -5.59934         1.94607         4.20903
   N       -5.85067         2.88355         4.82158
   C       -5.93988        -0.34612         4.16243
   N       -6.44638        -1.17970         4.76844
   C       -4.26881        -0.51994         1.60299
   C       -4.89216        -1.72121         1.74978
   C       -4.58764        -2.98352         1.13859
   C       -5.64581        -3.89617         0.95936
   C       -5.39782        -5.11632         0.38726
   C       -4.08808        -5.47422         0.01330
   C       -3.03005        -4.60198         0.23030
   C       -3.28449        -3.36607         0.78666
   C       -4.11847        -6.80903        -0.54038
   C       -5.44285        -7.27922        -0.50604
   C       -6.36440        -6.23641         0.08140
   C       -7.05159        -6.75050         1.36068
   C       -6.06041        -7.21624         2.42045
   C       -7.43231        -5.79238        -0.93619
   C       -6.83190        -5.26799        -2.23509
   C       -5.74491        -8.53865        -0.96275
   C       -4.72529        -9.36558        -1.46122
   C       -3.41288        -8.87386        -1.50113
   C       -3.10317        -7.60862        -1.04752
   C       -5.08598       -10.69759        -1.89688
   C       -4.22082       -11.65445        -2.27633
   C       -4.52636       -13.00977        -2.67398
   C       -3.46135       -13.88346        -2.94810
   F       -2.20224       -13.42505        -2.84618
   C       -3.64780       -15.20538        -3.30781
   F       -2.56370       -15.96885        -3.51474
   C       -4.92286       -15.76437        -3.42114
   C       -5.98792       -14.90050        -3.16217
   C       -5.80232       -13.57384        -2.80649
   F       -6.90314       -12.83461        -2.59116
   F       -7.24823       -15.35091        -3.28073
   C       -5.11982       -17.17917        -3.76501
   C       -6.02974       -17.95058        -3.03606
   C       -6.16450       -19.28543        -3.33709
   C       -5.40356       -19.86647        -4.36504
   C       -4.51795       -19.09855        -5.10559
   C       -4.38056       -17.75854        -4.79803
   C       -5.71708       -21.27857        -4.42532
   C       -6.67851       -21.56535        -3.43886
   C       -7.05661       -20.31321        -2.68375
   C       -6.75876       -20.44984        -1.17905
   C       -5.31384       -20.83961        -0.89202
   C       -8.54408       -19.96356        -2.88656
   C       -8.92202       -19.80197        -4.35403
   C       -7.12817       -22.84701        -3.24930
   C       -6.60731       -23.88485        -4.03979
   C       -5.65639       -23.57945        -5.02653
   C       -5.21213       -22.29004        -5.23017
   C       -6.95426       -25.26246        -3.82382
   C       -7.94061       -25.73754        -3.02796
   C       -8.21618       -27.11571        -2.82719
   C       -7.38589       -28.19268        -2.91468
   C       -7.98661       -29.54713        -3.04465
   O       -9.14470       -29.84864        -2.87535
   C       -6.87451       -30.42499        -3.47286
   C       -5.67407       -29.69187        -3.47196
   C       -5.94578       -28.33909        -2.98511
   C       -4.99716       -27.49517        -2.46987
   C       -3.61279       -27.76414        -2.49163
   N       -2.47604       -27.92360        -2.49607
   C       -5.27838       -26.29084        -1.79322
   N       -5.43412       -25.31654        -1.20697
   C       -4.49676       -30.30219        -3.87934
   C       -4.53480       -31.63252        -4.26787
   C       -5.72824       -32.34291        -4.24414
   C       -6.92071       -31.75134        -3.84938
  Br       -5.72729       -34.16714        -4.77468
   H       -4.47191         3.57366         2.83595
   H       -3.11024         5.06662         1.44960
   H       -1.81210         1.76273        -0.96432
   H       -5.76553        -1.74318         2.39206
   H       -6.64561        -3.61211         1.25520
   H       -2.02112        -4.88506        -0.02740
   H       -2.46451        -2.69705         0.98525
   H       -7.71142        -7.57821         1.09302
   H       -7.67040        -5.95002         1.77083
   H       -5.44519        -8.02993         2.04239
   H       -6.59399        -7.56866         3.29980
   H       -5.40534        -6.40143         2.72076
   H       -8.04651        -5.01353        -0.47954
   H       -8.08080        -6.64325        -1.15448
   H       -6.19405        -4.40716        -2.04652
   H       -7.62381        -4.96583        -2.91637
   H       -6.23511        -6.03646        -2.72148
   H       -6.76014        -8.90793        -0.93551
   H       -2.62215        -9.49101        -1.89721
   H       -2.08629        -7.24837        -1.08547
   H       -6.14597       -10.90144        -1.87496
   H       -3.16227       -11.43854        -2.27562
   H       -6.59605       -17.50509        -2.23276
   H       -3.93860       -19.53576        -5.90419
   H       -3.69852       -17.14886        -5.37016
   H       -7.42512       -21.20458        -0.75729
   H       -6.98403       -19.49795        -0.69353
   H       -5.08733       -21.81673        -1.31200
   H       -5.14783       -20.88393         0.18157
   H       -4.62539       -20.11206        -1.31695
   H       -8.75921       -19.03460        -2.35518
   H       -9.15108       -20.75383        -2.44007
   H       -8.35550       -18.99335        -4.81009
   H       -9.98070       -19.56999        -4.44231
   H       -8.72273       -20.71711        -4.90779
   H       -7.84693       -23.06513        -2.47579
   H       -5.25994       -24.38148        -5.63316
   H       -4.47469       -22.07666        -5.98902
   H       -6.36413       -25.97806        -4.38552
   H       -8.63356       -25.05085        -2.56292
   H       -9.25167       -27.37148        -2.62006
   H       -3.56219       -29.76617        -3.91064
   H       -3.62939       -32.12267        -4.59131
   H       -7.85074       -32.29805        -3.83416
*
