# ORCA input file
# SCF done       -174.601633954583          0.000201432599
! CAM-B3LYP def2-SVP def2/J RIJCOSX Grid4 TightSCF
%maxcore 5000
%tddft
    Mode sTDDFT
    Ethresh 5.0
    maxcore 5000
end

%pal
  nprocs 6
  end
* xyz 0 1
   C        8.29804       -12.05206        17.44430
   C        8.99637       -11.41869        16.48948
   C        9.87391       -10.29667        16.63875
   C       10.44070        -9.87328        15.48347
   C       10.06183       -10.61747        14.33745
   S        8.94609       -11.89203        14.78378
   C       10.47258       -10.41722        13.03396
   C       11.35805        -9.43542        12.54466
   C       11.55886        -9.49701        11.19389
   C       10.84764       -10.52422        10.54758
   S        9.90482       -11.42564        11.71881
   C       10.85277       -10.81463         9.19193
   C       10.13124       -11.83456         8.60402
   C       10.11725       -12.11695         7.24602
   C        9.39056       -13.13456         6.60518
   C        9.55025       -13.17085         5.24598
   C       10.41491       -12.17954         4.74968
   S       11.02904       -11.19966         6.06371
   C       10.76301       -11.93721         3.43001
   C       10.31465       -12.61608         2.27938
   C       10.81325       -12.11705         1.11452
   C       11.69256       -11.01174         1.26781
   S       11.86412       -10.65409         2.98224
   C       12.24910       -10.32267         0.22432
   C       13.12611        -9.19831         0.21603
   C       13.32114        -8.52489        -1.00976
   C       14.12656        -7.42063        -1.06466
   C       14.79980        -6.96403         0.08648
   C       14.63990        -7.63268         1.29507
   C       13.80674        -8.72748         1.35345
   C       15.56725        -5.79582        -0.26190
   C       15.35147        -5.50481        -1.62364
   C       14.43441        -6.53150        -2.24693
   C       13.15675        -5.88195        -2.80870
   C       12.38451        -5.09392        -1.75760
   C       15.15087        -7.31161        -3.36517
   C       16.43931        -7.97385        -2.89231
   C       15.93646        -4.41616        -2.21292
   C       16.78282        -3.58303        -1.45578
   C       17.02200        -3.91457        -0.10949
   C       16.41757        -4.99530         0.49312
   C       17.39982        -2.41396        -2.00641
   C       17.05344        -1.80878        -3.17671
   C       17.66451        -0.65208        -3.68169
   C       17.23829         0.00226        -4.81516
   C       17.78294         1.16490        -5.40090
   C       17.11577         1.60086        -6.51199
   C       16.00697         0.80905        -6.85907
   S       15.84217        -0.52605        -5.74460
   C       15.10323         0.99932        -7.89788
   C       15.08439         2.01739        -8.86316
   C       14.02776         1.93379        -9.73403
   C       13.16816         0.85078        -9.49591
   S       13.74663        -0.07959        -8.12906
   C       12.00989         0.52303       -10.19006
   C       11.20279        -0.55365        -9.88739
   C       10.02711        -0.88566       -10.54503
   C        9.18285        -1.97097       -10.25222
   C        8.07618        -2.05619       -11.05097
   C        7.99348        -1.03503       -12.01823
   S        9.37341         0.03629       -11.88387
   C        7.00109        -0.83791       -12.95962
   C        5.83903        -1.62478       -13.15974
   C        5.03168        -1.18823       -14.15652
   C        5.50201        -0.01222       -14.82439
   S        7.03624         0.49246       -14.09800
   C        4.92222         0.64752       -15.83908
   H        8.35668       -11.73194        18.46949
   H        7.66428       -12.89005        17.21992
   H       10.04231        -9.85517        17.60491
   H       11.12320        -9.04478        15.41301
   H       11.82207        -8.71259        13.19125
   H       12.19989        -8.82879        10.64573
   H       11.46707       -10.18626         8.55889
   H        9.52116       -12.46477         9.23924
   H        8.76601       -13.81256         7.16003
   H        9.06698       -13.88220         4.60066
   H        9.63186       -13.44473         2.33780
   H       10.57471       -12.50431         0.13935
   H       11.94188       -10.67049        -0.75594
   H       12.80855        -8.88078        -1.89267
   H       15.15870        -7.29696         2.18065
   H       13.69212        -9.24785         2.29063
   H       12.51573        -6.66620        -3.21754
   H       13.43390        -5.21639        -3.62902
   H       12.07764        -5.74234        -0.93982
   H       11.49471        -4.65157        -2.19982
   H       12.99970        -4.29508        -1.34936
   H       15.37620        -6.62362        -4.18282
   H       14.47071        -8.07535        -3.74878
   H       17.14234        -7.22826        -2.52746
   H       16.90575        -8.51437        -3.71292
   H       16.23670        -8.67673        -2.08716
   H       15.76662        -4.20439        -3.25731
   H       17.68448        -3.28393         0.46681
   H       16.60216        -5.21817         1.53364
   H       18.17945        -1.95810        -1.40787
   H       16.23630        -2.20639        -3.76425
   H       18.51175        -0.23537        -3.15290
   H       18.64923         1.64874        -4.98488
   H       17.39254         2.47179        -7.07898
   H       15.83601         2.78551        -8.89909
   H       13.84852         2.62868       -10.53569
   H       11.72967         1.16788       -11.01335
   H       11.49515        -1.19695        -9.06624
   H        9.41170        -2.66057        -9.45853
   H        7.32682        -2.82207       -10.96350
   H        5.63802        -2.49152       -12.55517
   H        4.10893        -1.65598       -14.45049
   H        3.98879         0.30734       -16.25126
   H        5.36521         1.52694       -16.26862
*
