# ORCA input file
# SCF done       -162.870525630305          0.000714935537
! CAM-B3LYP def2-SVP def2/J RIJCOSX Grid4 TightSCF
%maxcore 5000
%tddft
    Mode sTDDFT
    Ethresh 5.0
    maxcore 5000
end

%pal
  nprocs 6
  end
* xyz 0 1
   C       30.93456       -13.31492         4.96325
   C       29.95211       -12.39939         4.89146
   C       30.03002       -10.99830         5.15714
   C       28.85515       -10.33359         4.99167
   C       27.77708       -11.15002         4.58742
   S       28.29438       -12.80991         4.42363
   C       26.46771       -10.75214         4.32525
   C       25.92253        -9.46638         4.40853
   C       24.59093        -9.40881         4.05660
   C       24.04471       -10.63703         3.68844
   S       25.25194       -11.89379         3.80130
   C       22.73125       -10.88162         3.25182
   C       22.24959       -12.10426         2.89270
   C       20.95500       -12.34880         2.39185
   C       20.43807       -13.57133         1.98706
   C       19.14914       -13.49426         1.48007
   C       18.63119       -12.20898         1.48101
   S       19.78044       -11.08276         2.14559
   C       17.37935       -11.77599         0.97995
   C       16.44322       -12.53167         0.28634
   C       15.35939       -11.78622        -0.14399
   C       15.40910       -10.44533         0.22506
   S       16.86095       -10.13018         1.13376
   C       14.44937        -9.49147        -0.18038
   C       14.26909        -8.18588         0.16661
   C       14.96661        -7.33665         1.10441
   F       15.87142        -7.77172         2.00420
   C       14.54854        -6.05411         0.98335
   C       13.56014        -6.01645        -0.05322
   C       13.33876        -7.27838        -0.52657
   C       12.44159        -7.62489        -1.59585
   C       11.52612        -8.77779        -1.64984
   C       10.87191        -8.73072        -2.93216
   C       11.31169        -7.60791        -3.55217
   C       12.26583        -6.90877        -2.74510
   F       10.93252        -7.18216        -4.76673
   C       11.24327        -9.61184        -0.60552
   C       10.32386       -10.68116        -0.65940
   C       10.01510       -11.46719         0.40687
   C        9.10358       -12.54566         0.36067
   C        8.69691       -13.35770         1.40705
   C        7.78494       -14.33784         1.03733
   C        7.46587       -14.31157        -0.31109
   S        8.31794       -13.03056        -1.12063
   C        6.59490       -15.17080        -1.02225
   C        5.83300       -16.21922        -0.53206
   C        5.09812       -16.87346        -1.51094
   C        5.27031       -16.35261        -2.78539
   S        6.37766       -15.00470        -2.74186
   C        4.68152       -16.80722        -3.98209
   C        4.90070       -16.25441        -5.20823
   C        4.34315       -16.71259        -6.41318
   C        4.55217       -16.17897        -7.68420
   C        3.88813       -16.84472        -8.69145
   C        3.13012       -17.93048        -8.23897
   S        3.27289       -18.08933        -6.50333
   C        2.35380       -18.80817        -8.99211
   C        2.16775       -18.79969       -10.39144
   C        1.35529       -19.78688       -10.85439
   C        0.84129       -20.64723        -9.83672
   S        1.45916       -20.11926        -8.26374
   C        0.01936       -21.70216        -9.97796
   H       31.93033       -13.02782         5.25132
   H       30.75919       -14.35081         4.73776
   H       30.95652       -10.54308         5.45774
   H       28.73383        -9.27625         5.14611
   H       26.49958        -8.61333         4.71609
   H       24.00761        -8.50478         4.05660
   H       22.07875       -10.01949         3.18991
   H       22.90024       -12.96668         2.96866
   H       21.00193       -14.48438         2.05863
   H       18.59823       -14.34302         1.11737
   H       16.56698       -13.58035         0.08774
   H       14.53978       -12.19164        -0.71136
   H       13.75817        -9.88115        -0.92004
   H       14.88650        -5.21384         1.55915
   H       13.04888        -5.12755        -0.37150
   H       10.14733        -9.42685        -3.30412
   H       12.77178        -6.00786        -3.03346
   H       11.74552        -9.44225         0.33906
   H        9.83903       -10.88784        -1.60362
   H       10.47485       -11.27306         1.36801
   H        9.06168       -13.22820         2.41088
   H        7.36567       -15.05332         1.72119
   H        5.81936       -16.49171         0.50773
   H        4.45191       -17.71104        -1.31658
   H        4.02012       -17.66034        -3.89802
   H        5.55948       -15.39793        -5.28518
   H        5.18208       -15.32138        -7.84334
   H        3.93840       -16.56789        -9.72881
   H        2.64107       -18.06491       -11.01821
   H        1.09960       -19.93838       -11.88775
   H       -0.33577       -21.99281       -10.95067
   H       -0.30552       -22.28243        -9.13416
*
