# ORCA input file
# SCF done        -96.123945315223          0.000433204492
! CAM-B3LYP def2-SVP def2/J RIJCOSX Grid4 TightSCF
%maxcore 5000
%tddft
    Mode sTDDFT
    Ethresh 5.0
    maxcore 5000
end

%pal
  nprocs 6
  end
* xyz 0 1
   C        5.44547        -0.22962        -3.80757
   C        5.44843        -0.79166        -2.59258
   C        5.22376        -0.14840        -1.32744
   C        5.28805        -0.97311        -0.26190
   C        5.56601        -2.33384        -0.58707
   S        5.74284        -2.51814        -2.32117
   C        5.65609        -3.39318         0.27437
   C        5.44934        -3.39333         1.68215
   C        5.47062        -4.62372         2.24094
   C        5.67808        -5.69220         1.31163
   S        5.97730        -5.02624        -0.28940
   C        5.51128        -7.00558         1.59722
   C        5.60206        -8.11163         0.67954
   C        6.38623        -8.19857        -0.40592
   N        4.81829        -9.20564         1.08289
   N        4.53999        -9.46068         2.32514
   C        3.84884       -10.64621         2.29381
   C        3.35746       -11.30525         3.37824
   N        3.74016       -11.07114         0.99281
   N        4.34931       -10.17207         0.29026
   C        4.15625       -10.07564        -1.13174
   C        4.42125       -11.17412        -1.86304
   N        3.69690        -8.93476        -1.65144
   N        3.38954        -7.94360        -0.85276
   C        3.07410        -6.80317        -1.41975
   C        2.71851        -5.69962        -0.65081
   C        2.56802        -4.37660        -1.09129
   C        2.33264        -3.48059        -0.08053
   C        2.27234        -4.07241         1.19296
   S        2.47568        -5.80974         1.06969
   C        2.13317        -3.44392         2.42015
   C        1.98169        -2.05884         2.66791
   C        1.90277        -1.73070         3.98277
   C        1.98493        -2.84769         4.87266
   S        2.17518        -4.33228         3.92380
   C        1.93265        -2.84228         6.21488
   H        5.26049         0.82353        -3.92593
   H        5.62716        -0.80465        -4.69683
   H        5.02427         0.90768        -1.27954
   H        5.14629        -0.66273         0.75827
   H        5.26344        -2.48372         2.22496
   H        5.29961        -4.82890         3.28246
   H        5.18879        -7.26582         2.59546
   H        7.00232        -7.36893        -0.69554
   H        6.43346        -9.07811        -1.02165
   H        3.48751       -10.89553         4.35892
   H        2.83591       -12.23146         3.24945
   H        4.78419       -12.07073        -1.39935
   H        4.24116       -11.16765        -2.91993
   H        3.14547        -6.67804        -2.50045
   H        2.67490        -4.10987        -2.12772
   H        2.22490        -2.42094        -0.22906
   H        1.93436        -1.34739         1.86222
   H        1.78576        -0.73109         4.36194
   H        1.81525        -1.92039         6.75622
   H        2.00171        -3.74980         6.78559
*
