# ORCA input file
# SCF done       -176.292458728182          0.000796728175
! CAM-B3LYP def2-SVP def2/J RIJCOSX Grid4 TightSCF
%maxcore 5000
%tddft
    Mode sTDDFT
    Ethresh 5.0
    maxcore 5000
end

%pal
  nprocs 6
  end
* xyz 0 1
   C        0.99384         0.33732         4.88614
   C        2.23563        -0.04583         5.21522
   C        3.18294         0.65319         6.03370
   C        4.36483         0.01487         6.19102
   C        4.45394        -1.23285         5.51746
   S        2.95741        -1.56627         4.66391
   C        5.52188        -2.09899         5.49798
   C        6.77457        -1.95313         6.13991
   C        7.62636        -2.99224         5.92822
   C        7.10353        -4.02318         5.11045
   S        5.47130        -3.61381         4.61184
   C        7.77170        -5.16996         4.75248
   C        7.30015        -6.23247         3.98077
   S        5.64489        -6.34613         3.45780
   C        5.84507        -7.94879         2.82218
   C        7.18044        -8.36793         2.94863
   C        8.00859        -7.38846         3.58438
   C        9.38811        -7.64284         3.74340
   C       10.36681        -6.62259         4.22381
   O       10.97866        -6.72119         5.25885
   C       10.62624        -5.52544         3.21492
   C        9.89813        -8.85781         3.34787
   C        9.09025        -9.80823         2.70831
   C        7.76406        -9.56326         2.48468
   C        4.68222        -8.57711         2.29938
   C        4.49577        -9.90670         2.14242
   N        3.35415       -10.52308         1.70953
   C        2.22192        -9.76929         1.20807
   C        2.45998        -9.26776        -0.21572
   C        3.41785       -11.87409         1.35899
   C        4.46613       -12.44210         0.69362
   S        4.23276       -14.11447         0.39433
   C        2.70942       -14.07270         1.18201
   C        2.38634       -12.83219         1.65188
   N        1.22851       -12.52973         2.37623
   C        1.40802       -12.01934         3.73088
   C        0.36228       -10.97609         4.10806
   C        0.04857       -13.20196         2.12177
   C       -0.34446       -13.62406         0.91129
   N       -1.53513       -14.26973         0.61221
   C       -2.65374       -14.45115         1.35019
   S       -2.92007       -13.72735         2.90504
   C       -4.48971       -14.47523         2.98785
   N       -5.26049       -14.26821         4.11235
   O       -6.34644       -14.83650         4.17173
   O       -4.80724       -13.52997         4.98208
   C       -4.77579       -15.22147         1.86979
   C       -3.74459       -15.22960         0.92833
   C       -3.80713       -15.96033        -0.32191
   C       -4.53547       -17.08631        -0.42180
   N       -4.77231       -17.82897        -1.54389
   C       -4.13484       -17.48355        -2.79663
   C       -2.66061       -17.88515        -2.85426
   C       -5.52918       -18.99929        -1.47229
   C       -5.23147       -20.11398        -2.20349
   S       -6.31110       -21.41498        -1.91890
   C       -7.20537       -20.45944        -0.81120
   C       -6.70713       -19.19612        -0.65624
   N       -7.29326       -18.22791         0.15379
   C       -7.88362       -18.60992         1.42248
   C       -6.91978       -18.44454         2.59860
   C       -7.42897       -16.93722        -0.31613
   C       -7.86767       -15.88198         0.36425
   H        0.59497         1.26996         5.24394
   H        0.36221        -0.26686         4.26159
   H        2.93435         1.60484         6.46906
   H        5.18597         0.39553         6.77246
   H        7.00943        -1.09091         6.73767
   H        8.61976        -3.05899         6.33656
   H        8.77307        -5.27162         5.14780
   H       11.14969        -4.69473         3.68151
   H        9.70313        -5.18513         2.75464
   H       11.26123        -5.94339         2.43383
   H       10.94931        -9.06009         3.49021
   H        9.53629       -10.73040         2.36724
   H        7.17264       -10.27348         1.93125
   H        3.87418        -7.89209         2.08558
   H        5.26000       -10.60344         2.44934
   H        2.03614        -8.92904         1.88041
   H        1.35046       -10.42638         1.22122
   H        3.33029        -8.61767        -0.25237
   H        1.59340        -8.71243        -0.56351
   H        2.62833       -10.10816        -0.88597
   H        5.35605       -11.95924         0.34314
   H        2.13436       -14.97190         1.27070
   H        2.40251       -11.57484         3.78942
   H        1.36587       -12.85095         4.44835
   H        0.38206       -10.13974         3.41568
   H        0.57583       -10.60321         5.10597
   H       -0.63865       -11.39842         4.10972
   H       -0.58303       -13.32928         2.98504
   H        0.29404       -13.49774         0.04960
   H       -1.57923       -14.68637        -0.30691
   H       -5.72544       -15.70095         1.72466
   H       -3.27882       -15.54348        -1.16641
   H       -4.98683       -17.48534         0.47219
   H       -4.22728       -16.40129        -2.93618
   H       -4.68471       -17.97351        -3.60328
   H       -2.22317       -17.55181        -3.79173
   H       -2.54996       -18.96347        -2.78319
   H       -2.11131       -17.43768        -2.03031
   H       -4.42320       -20.25961        -2.88993
   H       -8.07241       -20.89039        -0.35405
   H       -8.19282       -19.65474         1.36711
   H       -8.77746       -18.00225         1.58383
   H       -5.98604       -18.96748         2.39900
   H       -7.36509       -18.86865         3.49460
   H       -6.70549       -17.39822         2.79674
   H       -7.15349       -16.82822        -1.35653
   H       -8.16045       -15.91083         1.39785
   H       -7.95756       -14.93152        -0.12775
*
