# ORCA input file
# SCF done       -134.093902818352          0.000356526597
! CAM-B3LYP def2-SVP def2/J RIJCOSX Grid4 TightSCF
%maxcore 5000
%tddft
    Mode sTDDFT
    Ethresh 5.0
    maxcore 5000
end

%pal
  nprocs 6
  end
* xyz 0 1
   C        1.42694         0.12967         4.12108
   C        1.32042        -1.08061         4.73030
   S        1.01432        -1.58017         6.36764
   C        1.12920        -3.27082         5.88230
   C        0.95134        -4.32322         6.91357
   C        1.38102        -3.43209         4.56274
   C        1.49886        -2.19991         3.86288
   C        1.74977        -1.80876         2.55588
   S        1.75537        -0.06146         2.44055
   C        1.98726        -2.60196         1.41274
   C        2.27224        -2.20535         0.12157
   S        2.43545        -0.64092        -0.60662
   C        2.76208        -1.39295        -2.16373
   C        3.01256        -0.52671        -3.34227
   C        2.74737        -2.74460        -2.11433
   C        2.47292        -3.25505        -0.81388
   C        2.33815        -4.51198        -0.23137
   S        1.95854        -4.34875         1.46935
   C        2.46777        -5.79688        -0.80293
   C        2.90121        -6.13074        -2.07576
   C        2.90231        -7.50700        -2.28773
   C        2.46771        -8.24163        -1.17122
   S        2.05807        -7.22673         0.14407
   C        2.51396        -9.61832        -1.49292
   C        2.98333        -9.75755        -2.81168
   C        3.23811        -8.43553        -3.35573
   C        3.68769        -8.12068        -4.60593
   C        3.87257        -6.78402        -5.01326
   N        4.01648        -5.69515        -5.34542
   C        3.99034        -9.10129        -5.57266
   N        4.24297        -9.88760        -6.36857
   C        3.06406       -11.08593        -3.22840
   C        2.65412       -11.96351        -2.23957
   S        2.16635       -11.12852        -0.76927
   C        2.59683       -13.37474        -2.31273
   C        2.97158       -14.21117        -3.34442
   S        3.62993       -13.91410        -4.91991
   C        3.61546       -15.64012        -5.26418
   C        4.10020       -16.10939        -6.58588
   C        3.14050       -16.37934        -4.23834
   C        2.76947       -15.59888        -3.10581
   C        2.22877       -15.84651        -1.85126
   S        1.97677       -14.34079        -0.99711
   C        1.86445       -17.05675        -1.20539
   C        2.22732       -18.36925        -1.41379
   S        3.30829       -19.18204        -2.50418
   C        2.94936       -20.73742        -1.75033
   C        3.61645       -21.95219        -2.28225
   C        2.06950       -20.63760        -0.73493
   C        1.63749       -19.29639        -0.49954
   C        0.81666       -18.68467         0.40567
   S        0.76069       -16.98650         0.15824
   H        1.33673         1.11064         4.53980
   H        1.70067        -4.21823         7.69801
   H        1.04561        -5.30822         6.46333
   H       -0.02972        -4.23822         7.38041
   H        1.48184        -4.39586         4.09777
   H        2.15156         0.11289        -3.53496
   H        3.20468        -1.13707        -4.22106
   H        3.87161         0.11952        -3.16414
   H        2.92027        -3.35097        -2.98362
   H        3.21681        -5.40550        -2.79947
   H        3.39663       -11.40786        -4.19784
   H        3.51123       -15.66566        -7.38815
   H        4.02749       -17.19230        -6.64786
   H        5.13829       -15.81404        -6.73631
   H        3.05031       -17.44769        -4.28263
   H        3.36233       -22.09766        -3.33198
   H        3.30510       -22.82807        -1.71848
   H        4.69947       -21.85277        -2.21415
   H        1.72851       -21.47528        -0.15385
   H        0.24907       -19.12590         1.19934
*
