# ORCA input file
# SCF done       -208.436115336107          0.000635205205
! CAM-B3LYP def2-SVP def2/J RIJCOSX Grid4 TightSCF
%maxcore 5000
%tddft
    Mode sTDDFT
    Ethresh 5.0
    maxcore 5000
end

%pal
  nprocs 6
  end
* xyz 0 1
   C       20.79635        -4.29693         0.11214
   C       21.66832        -4.94329         0.94348
   F       22.95474        -4.54957         0.98982
   C       21.27571        -6.01170         1.76049
   C       19.97282        -6.42536         1.72699
   C       19.03137        -5.79503         0.88825
   C       19.45143        -4.71130         0.06336
   C       18.52748        -4.06995        -0.79515
   C       17.22895        -4.49839        -0.82091
   C       16.81010        -5.57211         0.01747
   C       17.68166        -6.21329         0.84877
   C       15.36652        -5.80978        -0.18122
   O       14.67683        -6.67125         0.31768
   C       14.91508        -4.72168        -1.08783
   C       16.08509        -4.06614        -1.61845
   C       16.15955        -3.39628        -2.81548
   C       15.06900        -3.29026        -3.70136
   N       14.21090        -3.24108        -4.46359
   C       17.34594        -2.84188        -3.33135
   N       18.28247        -2.35691        -3.78549
   C       13.57932        -4.47487        -1.23138
   C       12.92175        -3.29743        -1.66555
   C       11.61566        -3.33827        -2.11061
   C       10.89956        -2.24626        -2.57838
   C       11.48357        -0.90243        -2.58359
   C       12.72373        -0.61074        -2.13498
   S       13.80830        -1.77982        -1.51409
   C       10.48070        -0.06152        -3.13413
   C        9.34481        -0.81338        -3.46006
   C        8.32671         0.00451        -4.00611
   C        8.70773         1.30568        -4.07816
   S       10.30894         1.60582        -3.49266
   C        9.59267        -2.18929        -3.11986
   C        8.74909        -3.31182        -3.28662
   C        7.52940        -3.30827        -3.88280
   C        6.71460        -4.45601        -4.07432
   C        6.91238        -5.75800        -3.68628
   C        5.88391        -6.63430        -4.09477
   C        4.86289        -5.95955        -4.82241
   S        5.21055        -4.26340        -4.96365
   C        3.76898        -6.60943        -5.34385
   C        3.67868        -7.98846        -5.14609
   C        4.69613        -8.66493        -4.41919
   C        5.78527        -8.01379        -3.89020
   S        4.37117       -10.37550        -4.33544
   C        2.90355       -10.18147        -5.28662
   C        2.67931        -8.87145        -5.61340
   C        2.13580       -11.33142        -5.66091
   C        1.13263       -11.27800        -6.60277
   C        0.40028       -12.37513        -7.05019
   C        0.56503       -13.68827        -6.41992
   C        1.49467       -13.96653        -5.47600
   S        2.61169       -12.81948        -4.87471
   C       -0.41117       -14.53161        -7.01784
   C       -1.12679       -13.81298        -7.97176
   C       -2.10181       -14.60586        -8.61415
   C       -2.10212       -15.87868        -8.13657
   S       -0.92421       -16.16835        -6.90254
   C       -0.61474       -12.46295        -8.03636
   C       -1.08563       -11.53691        -8.98016
   C       -0.54592       -10.33085        -9.35249
   C       -1.12921        -9.55481       -10.35947
   C       -0.71983        -8.33135       -10.84186
   C       -1.16207        -7.89839       -12.18748
   O       -2.03304        -8.40030       -12.86583
   C       -0.28471        -6.76204       -12.54341
   C       -0.20522        -6.06347       -13.71169
   C        0.74812        -5.02535       -13.83125
   C        1.60395        -4.73308       -12.73032
   C        2.55550        -3.70315       -12.85828
   C        2.63643        -3.00631       -14.03169
   C        1.80402        -3.27723       -15.12519
   C        0.87472        -4.27490       -15.01734
   F        3.54569        -2.02013       -14.15502
   C        1.49188        -5.46911       -11.52675
   C        0.55977        -6.46547       -11.43598
   C        0.20385        -7.35830       -10.33442
   C        0.54631        -7.14475        -9.01786
   C       -0.02752        -7.82185        -7.92986
   N       -0.45534        -8.31033        -6.98005
   C        1.44728        -6.16276        -8.56916
   N        2.19543        -5.41890        -8.11206
   H       21.13456        -3.48013        -0.50617
   H       22.00796        -6.48350         2.39635
   H       19.64645        -7.24644         2.34751
   H       18.86844        -3.24844        -1.40540
   H       17.34788        -7.03185         1.46880
   H       12.93114        -5.27724        -0.89122
   H       11.15454        -4.31647        -2.13724
   H       13.12432         0.39081        -2.13892
   H        7.35767        -0.32622        -4.33050
   H        8.13697         2.13439        -4.44926
   H        9.13697        -4.25202        -2.92047
   H        7.12914        -2.38791        -4.27745
   H        7.76884        -6.08946        -3.12765
   H        3.01680        -6.08304        -5.90978
   H        6.54948        -8.54452        -3.34498
   H        1.81587        -8.52646        -6.15041
   H        0.88629       -10.30451        -6.99361
   H        1.60427       -14.94971        -5.04613
   H       -2.77051       -14.26414        -9.38310
   H       -2.73401       -16.69173        -8.43637
   H       -1.98202       -11.84594        -9.50657
   H        0.38361        -9.99882        -8.91950
   H       -1.95467        -9.99681       -10.90915
   H       -0.85972        -6.29778       -14.53789
   H        3.21146        -3.46548       -12.03525
   H        1.91373        -2.69492       -16.02629
   H        0.22239        -4.50264       -15.84705
   H        2.15593        -5.23065       -10.71047
*
