# ORCA input file
# SCF done       -196.652930318377          0.000716734845
! CAM-B3LYP def2-SVP def2/J RIJCOSX Grid4 TightSCF
%maxcore 5000
%tddft
    Mode sTDDFT
    Ethresh 5.0
    maxcore 5000
end

%pal
  nprocs 6
  end
* xyz 0 1
   C        6.29451        -5.13502         9.72161
   C        5.60432        -4.44432        10.67851
   F        5.88980        -4.64823        11.97835
   C        4.59958        -3.52108        10.36075
   C        4.29671        -3.30004         9.04568
   C        4.97733        -3.98379         8.01800
   C        5.99382        -4.92135         8.36266
   C        6.68255        -5.62927         7.34960
   C        6.36644        -5.39962         6.03898
   C        5.36231        -4.44752         5.69836
   C        4.67581        -3.75837         6.65522
   C        5.24688        -4.36841         4.22813
   O        4.46910        -3.70695         3.57644
   C        6.33434        -5.23539         3.70478
   C        6.86898        -5.99809         4.80598
   C        7.49719        -7.21724         4.71775
   C        7.67957        -7.90530         3.50211
   N        7.79112        -8.50911         2.53089
   C        7.93398        -7.95764         5.83229
   N        8.32992        -8.58917         6.70607
   C        6.68489        -5.16426         2.38518
   C        7.89512        -5.55964         1.76416
   C        7.94897        -5.85119         0.41497
   C        9.06509        -6.34761        -0.24231
   C       10.30525        -6.63899         0.48816
   C       10.51825        -6.31845         1.78233
   S        9.33661        -5.58448         2.78054
   C       11.15163        -7.30143        -0.44287
   C       10.49437        -7.42604        -1.66819
   C       11.28675        -8.08545        -2.63427
   C       12.49619        -8.43790        -2.12702
   S       12.72421        -7.98570        -0.46910
   C        9.20341        -6.80133        -1.57684
   C        8.31835        -6.70305        -2.66919
   C        7.32778        -5.77852        -2.83655
   C        6.46630        -5.74139        -3.94918
   S        5.63550        -4.25730        -4.35482
   C        4.91090        -4.92843        -5.79472
   C        5.27430        -6.26088        -5.90710
   C        6.14481        -6.73087        -4.88570
   C        6.44153        -8.10401        -5.04637
   C        5.84482        -8.63706        -6.15081
   C        5.94441       -10.02524        -6.60120
   O        6.62254       -10.86933        -6.06768
   O        5.18316       -10.23659        -7.68219
   C        5.18986       -11.55372        -8.20841
   S        4.87736        -7.49818        -7.05528
   C        4.12860        -4.15291        -6.67828
   C        3.46589        -4.59517        -7.81286
   C        2.84199        -3.55197        -8.49094
   C        3.02800        -2.30026        -7.87523
   S        3.96030        -2.41578        -6.44708
   C        2.39199        -1.31191        -8.66320
   C        1.79862        -1.93447        -9.77452
   C        2.05356        -3.36400        -9.69841
   C        1.64580        -4.32468       -10.57644
   C        1.95997        -5.68897       -10.40208
   N        2.21008        -6.80040       -10.27127
   C        0.88072        -4.02057       -11.72209
   N        0.25821        -3.78177       -12.65510
   C        1.17169        -1.03435       -10.63578
   C        1.28629         0.27204       -10.19673
   S        2.17433         0.38575        -8.68184
   C        0.80569         1.44184       -10.83399
   C        0.95986         2.75710       -10.43001
   C        0.38047         3.65259       -11.32076
   C       -0.22077         3.02182       -12.40668
   S       -0.08030         1.31488       -12.34465
   C       -0.77547         4.00776       -13.26295
   C       -0.52762         5.26337       -12.72696
   C        0.23837         5.15358       -11.42922
   C       -0.56358         5.72449       -10.25675
   C        1.60674         5.83321       -11.53139
   C       -1.04373         6.29532       -13.52195
   C       -1.66734         5.80880       -14.63452
   S       -1.64283         4.08528       -14.74361
   H        7.05939        -5.84197        10.00279
   H        4.08813        -3.00606        11.15842
   H        3.52639        -2.59309         8.77630
   H        7.45070        -6.33010         7.63614
   H        3.90992        -3.04938         6.37841
   H        5.95400        -4.68213         1.74291
   H        7.01609        -5.77977        -0.12713
   H       11.45417        -6.50725         2.28379
   H       10.98398        -8.29329        -3.64435
   H       13.29489        -8.94889        -2.62809
   H        8.51762        -7.38451        -3.48462
   H        7.23632        -4.95924        -2.13711
   H        7.03780        -8.70057        -4.38149
   H        4.50948       -11.54321        -9.05562
   H        4.85333       -12.26519        -7.45135
   H        6.19765       -11.82940        -8.52619
   H        3.44919        -5.62501        -8.11723
   H        0.66119        -1.29646       -11.54494
   H        1.47876         3.02354        -9.52627
   H       -1.53330         5.23653       -10.18961
   H       -0.71899         6.79155       -10.39547
   H       -0.02727         5.56560        -9.32440
   H        2.17108         5.42189       -12.36530
   H        2.17178         5.67574       -10.61594
   H        1.48199         6.90176       -11.68815
   H       -0.96707         7.34414       -13.29917
   H       -2.14974         6.36491       -15.41368
*
