# ORCA input file
# SCF done       -221.053217642245          0.000990778831
! CAM-B3LYP def2-SVP def2/J RIJCOSX Grid4 TightSCF
%maxcore 5000
%tddft
    Mode sTDDFT
    Ethresh 5.0
    maxcore 5000
end

%pal
  nprocs 6
  end
* xyz 0 1
   C       -3.80282         4.10791         6.55119
   C       -5.15222         4.15194         6.76891
   F       -5.61770         4.60068         7.94590
   C       -6.08371         3.74241         5.80376
   C       -5.63005         3.28306         4.59916
   C       -4.24864         3.21653         4.32094
   C       -3.31661         3.63400         5.31735
   C       -1.92642         3.56060         5.06873
   C       -1.48356         3.08204         3.86487
   C       -2.42111         2.68811         2.86363
   C       -3.76968         2.74756         3.07894
   C       -1.69919         2.24859         1.66127
   O       -2.13976         1.79384         0.63399
   C       -0.25604         2.54550         1.94747
   C       -0.13376         2.84120         3.36439
   C        0.98240         2.67415         4.13306
   C        2.20326         2.15787         3.64714
   N        3.18570         1.65801         3.32788
   C        1.00655         2.88030         5.52966
   N        1.06976         3.03547         6.66430
   C        0.62031         2.60413         0.91859
   C        1.93370         3.16246         0.94424
   N        2.27217         4.08049         1.83170
   C        3.59365         4.30014         1.65690
   C        4.13174         3.43514         0.59928
   C        5.58410         3.63975         0.44614
   O        6.34445         3.10133        -0.32270
   C        5.86605         4.66940         1.47048
   C        4.61805         5.04375         2.17970
   N        4.86560         5.99646         3.11330
   C        6.14980         6.23014         3.03048
   C        6.83566         5.43895         2.01992
   C        3.07052         2.73839         0.08908
   C        3.08327         1.75471        -0.94882
   C        2.08947         1.54772        -1.83932
   C        2.07744         0.51883        -2.82502
   C        2.90724        -0.58156        -2.95039
   C        2.54114        -1.45274        -3.97969
   C        3.29764        -2.66114        -4.30837
   C        3.74308        -3.48441        -3.28149
   C        4.38025        -4.68928        -3.57334
   C        4.58153        -5.06460        -4.90053
   C        4.16404        -4.22403        -5.92722
   C        3.53091        -3.01871        -5.63239
   O        4.30234        -4.50503        -7.24829
   C        4.84952        -5.74608        -7.62462
   O        4.74231        -5.43409        -2.50557
   C        5.33238        -6.70068        -2.71571
   C        1.40006        -1.01153        -4.65998
   S        0.83559         0.50697        -4.03487
   C        0.66497        -1.55784        -5.74077
   N       -0.00431        -0.73612        -6.54187
   C       -0.54559        -1.50387        -7.50177
   C       -0.20922        -2.92338        -7.30018
   C       -0.80170        -3.74975        -8.36948
   O       -0.68103        -4.94349        -8.55462
   C       -1.53187        -2.76065        -9.17198
   C       -1.34025        -1.40189        -8.61953
   N       -2.01684        -0.48900        -9.35290
   C       -2.61219        -1.18004       -10.29747
   C       -2.35729        -2.60253       -10.24044
   C        0.52170        -2.98053        -6.14055
   C        0.95428        -4.11399        -5.39806
   C        0.94485        -5.36589        -5.91783
   C        1.44566        -6.49165        -5.22696
   C        1.31459        -7.78679        -5.63200
   C        2.26133        -8.83271        -5.18126
   O        3.10457        -8.72472        -4.31368
   C        2.03054        -9.97924        -6.07850
   C        2.68369       -11.17756        -6.12411
   C        2.30069       -12.13587        -7.08847
   C        1.25351       -11.82422        -8.00415
   C        0.88226       -12.78087        -8.96863
   C        1.52581       -13.98673        -9.00027
   C        2.55344       -14.31429        -8.10501
   C        2.93052       -13.39503        -7.16612
   F        1.17056       -14.90334        -9.91834
   C        0.59152       -10.57623        -7.93216
   C        0.96500        -9.67195        -6.97572
   C        0.42944        -8.35911        -6.62506
   C       -0.79818        -7.87003        -6.98394
   C       -1.42372        -6.76928        -6.35729
   N       -2.01611        -5.94987        -5.81466
   C       -1.64376        -8.49597        -7.92339
   N       -2.35738        -8.97859        -8.68146
   H       -3.11536         4.42720         7.31870
   H       -7.13592         3.79904         6.03322
   H       -6.32764         2.96226         3.84041
   H       -1.24365         3.89150         5.83506
   H       -4.46117         2.43579         2.31063
   H        0.25640         2.21072        -0.02284
   H        6.61289         6.95550         3.67685
   H        7.88341         5.48717         1.79891
   H        4.00451         1.19338        -1.02948
   H        1.23131         2.20574        -1.85838
   H        3.76074        -0.75271        -2.32013
   H        3.56419        -3.23533        -2.24824
   H        5.05283        -6.00583        -5.12511
   H        3.23458        -2.37702        -6.44603
   H        4.80680        -5.76810        -8.71220
   H        4.26529        -6.58116        -7.22329
   H        5.89164        -5.84137        -7.30312
   H        5.52653        -7.09660        -1.72069
   H        6.27842        -6.61419        -3.25876
   H        4.65738        -7.37746        -3.24756
   H       -3.22276        -0.68131       -11.03013
   H       -2.75328        -3.33664       -10.91378
   H        1.24322        -3.96106        -4.36869
   H        0.60323        -5.50669        -6.93443
   H        2.07761        -6.31465        -4.36368
   H        3.48026       -11.39513        -5.42813
   H        0.09231       -12.56420        -9.67062
   H        3.02269       -15.28268        -8.17609
   H        3.71949       -13.62426        -6.46562
   H       -0.19483       -10.36411        -8.63894
*
