# ORCA input file
# SCF done       -201.470296386455          0.000764153785
! CAM-B3LYP def2-SVP def2/J RIJCOSX Grid4 TightSCF
%maxcore 5000
%tddft
    Mode sTDDFT
    Ethresh 5.0
    maxcore 5000
end

%pal
  nprocs 6
  end
* xyz 0 1
   C        5.13812         0.91313         8.69946
   C        4.49349         1.94776         9.31850
   F        4.61574         2.10239        10.64980
   C        3.70088         2.86634         8.61750
   C        3.56587         2.72566         7.26409
   C        4.20890         1.67762         6.57457
   C        5.00829         0.75197         7.30657
   C        5.65338        -0.31552         6.63889
   C        5.50535        -0.44586         5.28533
   C        4.71988         0.49286         4.55524
   C        4.07974         1.52639         5.17513
   C        4.75260         0.14429         3.12115
   O        4.16401         0.67954         2.20952
   C        5.71800        -0.98389         3.01734
   C        6.00456        -1.45151         4.35270
   C        6.40673        -2.71937         4.69547
   C        6.57437        -3.75572         3.75589
   N        6.66600        -4.63326         3.02000
   C        6.59326        -3.15180         6.02232
   N        6.78065        -3.54591         7.08442
   C        6.19788        -1.35486         1.79522
   C        7.36879        -2.09419         1.48299
   C        7.47633        -2.79322         0.29913
   C        8.55081        -3.60088        -0.04733
   C        9.72171        -3.72681         0.82364
   C        9.87199        -3.06882         1.99387
   S        8.69115        -2.01610         2.64654
   C       10.57653        -4.65625         0.17181
   C        9.98276        -5.10580        -1.01276
   C       10.82187        -6.01191        -1.70259
   C       11.98542        -6.22739        -1.03607
   S       12.12207        -5.34531         0.44722
   C        8.70826        -4.45632        -1.16382
   C        7.75327        -4.62654        -2.18931
   C        7.72383        -5.66322        -3.07097
   C        6.74039        -5.82888        -4.07254
   C        5.77816        -4.93233        -4.51851
   C        4.96582        -5.47862        -5.50553
   C        5.29471        -6.81312        -5.81901
   S        6.62851        -7.37441        -4.91224
   C        4.39030        -7.28315        -6.79656
   C        3.49653        -6.24320        -7.11956
   C        3.83622        -5.07347        -6.32729
   C        3.22774        -3.85225        -6.35310
   C        3.64359        -2.79265        -5.52065
   N        3.98873        -1.93466        -4.84242
   C        2.15047        -3.57245        -7.21908
   N        1.27922        -3.34372        -7.92899
   C        2.53533        -6.61623        -8.05355
   C        2.67468        -7.93878        -8.44718
   S        4.03656        -8.72294        -7.64727
   C        1.85803        -8.67661        -9.33044
   S        1.98818       -10.41352        -9.40526
   C        0.68770       -10.56640       -10.55952
   C        0.20750        -9.30799       -10.87496
   C        0.85430        -8.23510       -10.19585
   C        0.32990        -6.98077       -10.58757
   C       -0.66902        -7.10361       -11.50609
   C       -1.44484        -6.03426       -12.14243
   O       -2.32613        -6.21805       -12.94389
   O       -1.04865        -4.82563       -11.71965
   C       -1.74563        -3.71853       -12.27314
   S       -1.03366        -8.75327       -11.95118
   C        0.25110       -11.83341       -11.01203
   C       -0.79314       -12.10555       -11.88122
   C       -0.96166       -13.47623       -12.07256
   C       -0.04209       -14.25154       -11.35174
   S        1.03513       -13.29609       -10.43440
   C       -0.31007       -15.62474       -11.60726
   C       -1.39800       -15.71291       -12.48496
   C       -1.84666       -14.37284       -12.81004
   C       -2.88147       -14.01825       -13.62474
   C       -3.22591       -12.67118       -13.86518
   N       -3.51534       -11.57963       -14.06301
   C       -3.67974       -14.97699       -14.28340
   N       -4.33333       -15.75314       -14.81762
   C       -1.73719       -17.04598       -12.78721
   C       -0.91730       -17.92377       -12.14659
   S        0.28748       -17.16031       -11.16078
   H        5.73699         0.22191         9.27166
   H        3.21557         3.66240         9.15954
   H        2.96038         3.42097         6.70238
   H        6.25653        -0.99981         7.21453
   H        3.47989         2.22090         4.60625
   H        5.63149        -0.98133         0.94724
   H        6.62009        -2.74996        -0.36038
   H       10.75029        -3.17035         2.61165
   H       10.60184        -6.47447        -2.64691
   H       12.79817        -6.86387        -1.32689
   H        6.96028        -3.89313        -2.23114
   H        8.44889        -6.45799        -2.98136
   H        5.69146        -3.92959        -4.14345
   H        1.74887        -5.97736        -8.40558
   H        0.66333        -6.02267       -10.23687
   H       -1.34903        -2.83642       -11.77764
   H       -2.81766        -3.81568       -12.09050
   H       -1.57656        -3.66475       -13.35068
   H       -1.39098       -11.33795       -12.33643
   H       -2.53893       -17.34391       -13.43774
   H       -0.94006       -18.99427       -12.18748
*
