# ORCA input file
# SCF done       -217.718975127770          0.000995645965
! CAM-B3LYP def2-SVP def2/J RIJCOSX Grid4 TightSCF
%maxcore 5000
%tddft
    Mode sTDDFT
    Ethresh 5.0
    maxcore 5000
end

%pal
  nprocs 6
  end
* xyz 0 1
   C        6.32089       -13.96971        10.04070
   C        7.31927       -13.76776         9.09980
   C        7.12846       -12.91146         8.02420
   C        5.93487       -12.22460         7.86346
   C        4.93101       -12.41604         8.79895
   C        5.11869       -13.29580         9.88933
   C        3.89878       -13.33088        10.68457
   C        3.74073       -13.96957        11.88277
   C        4.77223       -14.67460        12.54137
   N        5.56386       -15.25853        13.13176
   C        2.56033       -14.00084        12.65785
   N        1.64714       -14.08661        13.34784
   C        2.89235       -12.56998         9.94332
   C        3.60468       -11.82950         8.90389
   C        3.21198       -10.65009         8.33238
   C        2.01665        -9.96672         8.63956
   N        1.08330        -9.34059         8.87129
   C        4.00254        -9.92409         7.41583
   N        4.59561        -9.30017         6.65726
   C        1.55138       -12.64400        10.16545
   C        0.49064       -12.26905         9.28476
   C        0.54360       -12.29942         7.89646
   C       -0.53894       -11.99053         7.07291
   C       -1.78302       -11.61094         7.56329
   C       -1.88631       -11.58630         8.98083
   C       -0.77666       -11.92749         9.82823
   N       -1.19184       -11.81911        11.07403
   O       -2.46276       -11.44380        11.01238
   N       -2.90340       -11.29659         9.76584
   C       -2.91058       -11.29869         6.75268
   C       -2.97926       -11.23467         5.36883
   C       -4.26317       -10.94042         4.92432
   C       -5.18243       -10.78046         5.98248
   S       -4.46114       -10.97455         7.51403
   C       -6.46080       -10.52638         5.42574
   C       -6.35076       -10.51983         4.02355
   C       -4.96378       -10.76945         3.66275
   C       -4.43700       -10.84109         2.40631
   C       -5.22399       -10.64847         1.25156
   N       -5.86472       -10.49159         0.31381
   C       -3.07196       -11.11862         2.18415
   N       -1.96388       -11.35473         2.00746
   C       -7.57299       -10.32535         3.38238
   C       -8.61254       -10.18787         4.28588
   S       -8.06697       -10.28355         5.94973
   C       -9.99679       -10.04046         3.99313
   C      -10.59134       -10.00983         2.76089
   C      -12.00191        -9.92540         2.81273
   C      -12.90331        -9.86556         1.73237
   C      -12.44425        -9.99035         0.36441
   C      -11.52207       -10.86753        -0.13346
   C      -11.32617       -10.71952        -1.52263
   C      -12.07885        -9.73366        -2.09456
   S      -13.07103        -8.97082        -0.89994
   C      -12.12036        -9.30335        -3.51449
  Cl      -10.22577       -11.70801        -2.40483
   C      -14.25203        -9.71173         2.04553
   C      -14.72573        -9.63602         3.38294
   C      -13.82268        -9.70442         4.47318
   C      -12.48305        -9.86053         4.14772
   S      -11.16888        -9.94508         5.29055
   C      -14.24979        -9.61196         5.85250
   C      -13.74457       -10.28075         6.93235
   C      -14.35769        -9.90436         8.14583
   C      -15.31998        -8.94420         8.01946
   S      -15.49066        -8.49466         6.35744
   C      -16.15480        -8.31778         9.07440
  Cl      -13.91432       -10.60787         9.65331
   C      -16.12613        -9.56568         3.41642
   C      -16.72552        -9.58025         2.16963
   S      -15.54544        -9.67418         0.88408
   C      -18.12776        -9.54651         2.02892
   C      -18.95924        -9.59388         0.94344
   C      -18.50949        -9.67326        -0.43744
   O      -17.33620        -9.67722        -0.77222
   N      -19.50127        -9.74535        -1.39416
   C      -20.86355        -9.74195        -1.15283
   O      -21.65720        -9.81184        -2.06034
   N      -21.25240        -9.65389         0.16727
   C      -20.39816        -9.57004         1.24906
   O      -20.84355        -9.48961         2.37513
   C      -22.67655        -9.64748         0.46014
   C      -19.11663        -9.83120        -2.79410
   H        6.48513       -14.64441        10.86443
   H        8.25723       -14.29087         9.20576
   H        7.91751       -12.77830         7.30011
   H        5.79449       -11.56886         7.01951
   H        1.21092       -13.08076        11.09516
   H        1.46065       -12.61434         7.41898
   H       -0.39497       -12.05807         6.00616
   H       -2.13398       -11.39408         4.72522
   H       -7.70958       -10.29215         2.31762
   H      -10.03757       -10.02692         1.84147
   H      -11.03409       -11.62593         0.45056
   H      -11.43989        -9.91322        -4.10327
   H      -11.82913        -8.25770        -3.60752
   H      -13.12805        -9.40707        -3.91498
   H      -12.99266       -11.04537         6.87388
   H      -15.89536        -8.73759        10.04294
   H      -17.21270        -8.49505         8.88318
   H      -15.99582        -7.24024         9.10109
   H      -16.70481        -9.52606         4.32107
   H      -18.66109        -9.48664         2.97518
   H      -23.21625        -9.74273        -0.47801
   H      -22.94168        -8.71624         0.95994
   H      -22.91308       -10.47842         1.12400
   H      -18.03081        -9.84108        -2.84116
   H      -19.51350        -8.97421        -3.33720
   H      -19.52649       -10.74123        -3.23056
*
