# ORCA input file
# SCF done       -212.471319559971          0.000968285874
! CAM-B3LYP def2-SVP def2/J RIJCOSX Grid4 TightSCF
%maxcore 5000
%tddft
    Mode sTDDFT
    Ethresh 5.0
    maxcore 5000
end

%pal
  nprocs 6
  end
* xyz 0 1
   C       -3.57750        -0.05773        -0.23936
   C       -2.45778        -0.80768        -0.27604
   C       -1.26415        -0.02918        -0.22812
   C        0.06864        -0.47868        -0.19799
   C        0.42736        -1.88011        -0.29967
   C        1.40465        -2.54542         0.38236
   C        1.51773        -3.89864        -0.00527
   C        0.65058        -4.28002        -0.98670
   S       -0.34697        -2.94142        -1.44562
   C        0.49725        -5.60820        -1.63197
  Cl        2.66174        -4.96562         0.71384
   C        1.04983         0.49968        -0.07161
   C        0.76529         1.88499         0.01258
   C       -0.56863         2.33551        -0.02034
   C       -1.54964         1.35419        -0.14507
   S       -3.26899         1.63983        -0.14970
   C       -0.92372         3.73559         0.08674
   C       -1.92037         4.39938        -0.56967
   C       -2.02400         5.75284        -0.18236
   C       -1.13048         6.13890         0.77369
   S       -0.11908         4.80318         1.20792
   C       -0.95807         7.46964         1.40826
  Cl       -3.19040         6.81608        -0.87063
   C        1.94797         2.66084         0.07625
   C        3.09355         1.91939         0.05718
   S        2.76734         0.20164        -0.04792
   C        4.43181         2.39466         0.13941
   C        5.59578         1.65400         0.10740
   C        6.72924         2.45821         0.25180
   C        6.41735         3.81892         0.39261
   S        4.73663         4.11246         0.34250
   C        7.62401         4.54755         0.56431
   C        8.69812         3.64260         0.53477
   C        8.17413         2.30207         0.32238
   C        8.88853         1.14640         0.20677
   C        8.27056        -0.10394        -0.00711
   N        7.77419        -1.12263        -0.18002
   C       10.29704         1.12764         0.28685
   N       11.44165         1.11326         0.35169
   C        9.92953         4.26469         0.73162
   C        9.79948         5.63192         0.90464
   S        8.12396         6.15877         0.81470
   C       10.85919         6.54187         1.16783
   C       10.82271         7.92604         1.27124
   C        9.64612         8.67371         1.11744
   N        8.67144         9.26858         1.00593
   C       12.09581         8.48149         1.58284
   C       13.06119         7.49166         1.72230
   S       12.46593         5.89940         1.45067
   S       14.63991         8.05096         2.16763
   C       13.99827         9.66024         2.17258
   C       12.65570         9.76861         1.82859
   C       12.23846        11.13018         1.81092
   C       10.99169        11.60262         1.36098
   N       10.01605        12.03867         0.94812
   C       13.25463        11.99883         2.15669
   S       14.75149        11.16808         2.50989
   C       13.14747        13.43851         2.27434
   C       12.08772        14.06074         2.86770
   F       11.06142        13.46892         3.46732
   S       12.18419        15.78628         2.89125
   C       13.71465        15.66718         2.09173
   F       14.35945        16.79178         1.78467
   C       14.12862        14.39366         1.81428
   C       15.34646        13.99823         1.16172
   C       16.43533        14.76284         0.95018
   C       17.64231        14.23920         0.39840
   C       17.96725        12.92016         0.14343
   C       19.26909        12.78203        -0.33667
   C       19.94218        14.00467        -0.45614
   S       18.97502        15.32183         0.03165
   C       21.25725        13.74354        -0.94324
   C       21.40368        12.36270        -1.12162
   C       20.16578        11.70771        -0.74210
   C       19.88859        10.37117        -0.73622
   C       18.63888         9.87188        -0.31387
   N       17.62308         9.46945         0.03649
   C       20.83310         9.40487        -1.14097
   N       21.60032         8.61696        -1.46584
   C       22.68335        12.01452        -1.59552
   C       23.46537        13.11612        -1.76419
   S       22.67344        14.60186        -1.35321
   H       -4.59572        -0.39339        -0.26113
   H       -2.46788        -1.88037        -0.32219
   H        2.00419        -2.10846         1.15896
   H        1.19289        -6.31342        -1.18429
   H        0.69968        -5.54180        -2.70065
   H       -0.51825        -5.98231        -1.50595
   H       -2.54023         3.96009        -1.32862
   H        0.04399         7.85612         1.22437
   H       -1.09796         7.40225         2.48673
   H       -1.68605         8.16611         1.00005
   H        1.96073         3.73427         0.12314
   H        5.60002         0.58522        -0.01002
   H       10.88054         3.76274         0.75283
   H       15.37234        12.96730         0.84519
   H       16.44535        15.80759         1.22272
   H       17.29746        12.09950         0.31771
   H       23.01106        11.01179        -1.80054
   H       24.47867        13.15608        -2.11034
*
