# ORCA input file
# SCF done       -226.302097543667          0.000653277903
! CAM-B3LYP def2-SVP def2/J RIJCOSX Grid4 TightSCF
%maxcore 5000
%tddft
    Mode sTDDFT
    Ethresh 5.0
    maxcore 5000
end

%pal
  nprocs 6
  end
* xyz 0 1
   O        1.41858        -3.48643       -10.70215
   N        1.02107        -2.21470       -10.75818
   C        2.00483        -1.46280       -10.32321
   C        1.92061        -0.05543       -10.24515
   N        1.87844         1.08483       -10.16999
   C        3.12328        -2.27264        -9.95591
   C        2.67091        -3.55218       -10.22533
   C        3.31745        -4.79419       -10.07038
   N        3.83971        -5.80445        -9.94667
   C        4.43908        -1.87242        -9.41151
   O        5.29045        -2.67118        -9.11451
   O        4.48304        -0.54774        -9.31995
   C        5.54164         0.19935        -8.81627
   C        6.73990        -0.33390        -8.35326
   C        7.68152         0.54299        -7.85928
   C        7.44349         1.92575        -7.82751
   C        6.24820         2.44386        -8.30621
   C        5.29754         1.57271        -8.80002
   C        8.59330         2.57463        -7.22925
   C        9.53625         1.58848        -6.89338
   C        9.03944         0.21767        -7.28675
   C        9.95255        -0.42766        -8.34688
   C       10.11919         0.43626        -9.59118
   C        8.92663        -0.71593        -6.06720
   C        8.04224        -0.14547        -4.96506
   C       10.71336         1.93140        -6.27650
   C       10.97482         3.27578        -5.96683
   C       10.03242         4.24860        -6.32658
   C        8.85045         3.91008        -6.95399
   C       12.19141         3.58158        -5.25442
   C       12.57168         4.77302        -4.75650
   C       13.75103         4.95839        -3.97475
   C       14.15929         6.10932        -3.36277
   C       15.32557         5.96291        -2.57364
   C       15.99940         6.94423        -1.81879
   C       15.54908         8.31827        -1.72411
   C       16.32123         9.44383        -1.68596
   C       15.56323        10.62381        -1.52326
   C       14.21817        10.42154        -1.42001
   S       13.86484         8.73106        -1.54103
   C       13.13567        11.42066        -1.23683
  Cl       16.29371        12.18147        -1.46057
   C       17.12881         6.52355        -1.12368
   C       17.62222         5.19654        -1.16318
   C       16.97618         4.22515        -1.95531
   C       15.82632         4.63686        -2.62008
   S       14.83208         3.62350        -3.62592
   C       17.47844         2.87296        -2.08381
   C       16.76854         1.70990        -2.16983
   C       17.59223         0.57936        -2.35996
   C       18.92628         0.85496        -2.43355
   S       19.18663         2.55683        -2.25303
   C       20.06273        -0.07855        -2.63517
  Cl       16.94755        -1.01257        -2.48862
   C       18.70730         5.01136        -0.27575
   C       19.04815         6.13771         0.41802
   S       18.05465         7.51066        -0.02389
   C       20.03833         6.26168         1.43016
   C       20.34156         7.38026         2.18156
   C       21.32820         7.11641         3.13376
   C       21.77726         5.78961         3.09932
   S       20.99574         4.86574         1.89445
   C       22.74702         5.61427         4.12349
   C       22.90887         6.82862         4.80225
   C       22.03306         7.81862         4.20045
   C       21.89243         9.12869         4.54979
   C       20.99679         9.99058         3.88052
   N       20.27026        10.69547         3.34229
   C       22.63031         9.72248         5.59683
   N       23.22349        10.22367         6.43975
   C       23.83284         6.75167         5.86019
   C       24.34466         5.48828         5.95439
   S       23.72347         4.36400         4.76187
   O       25.24751         4.93496         6.81251
   C       25.73357         5.59031         7.88660
   O       25.46710         6.71470         8.21032
   C       26.64989         4.69963         8.61241
   C       27.37210         4.97863         9.81409
   N       28.08267         3.93424        10.16814
   O       27.87794         2.96897         9.27119
   C       27.02536         3.39610         8.32873
   C       26.64154         2.56008         7.26318
   N       26.31502         1.89742         6.38885
   C       27.35966         6.18121        10.55631
   N       27.34817         7.15324        11.15691
   H        6.92120        -1.39550        -8.37342
   H        6.05623         3.50532        -8.29041
   H        4.35031         1.92740        -9.17532
   H        9.52969        -1.39358        -8.62950
   H       10.93148        -0.60858        -7.89841
   H        9.15853         0.61021       -10.07094
   H       10.77462        -0.05900       -10.30367
   H       10.55403         1.40020        -9.33574
   H        9.92825        -0.89494        -5.67135
   H        8.52189        -1.67433        -6.39761
   H        8.43690         0.80258        -4.60603
   H        7.99582        -0.83827        -4.12818
   H        7.03118         0.02089        -5.33017
   H       11.43884         1.17621        -6.00975
   H       10.23082         5.28599        -6.10643
   H        8.13455         4.67391        -7.21824
   H       12.84312         2.73400        -5.07385
   H       11.96967         5.66052        -4.89136
   H       13.62867         7.03668        -3.47306
   H       17.38872         9.44805        -1.80432
   H       13.56758        12.41489        -1.15594
   H       12.56473        11.20718        -0.33380
   H       12.44695        11.40171        -2.08121
   H       15.70175         1.64397        -2.06684
   H       19.69498        -1.10112        -2.66558
   H       20.78610         0.01568        -1.82619
   H       20.57686         0.13910        -3.57121
   H       19.20368         4.07067        -0.12153
   H       19.85111         8.32574         2.03525
   H       24.10434         7.55833         6.51644
*
