# ORCA input file
# SCF done       -217.793992148890          0.000988544276
! CAM-B3LYP def2-SVP def2/J RIJCOSX Grid4 TightSCF
%maxcore 5000
%tddft
    Mode sTDDFT
    Ethresh 5.0
    maxcore 5000
end

%pal
  nprocs 6
  end
* xyz 0 1
   C        0.49904        -0.78945        -5.85722
   C       -0.65237        -0.11999        -6.16484
   F       -1.81413        -0.79524        -6.22910
   C       -0.67574         1.25831        -6.41917
   C        0.49456         1.96203        -6.35806
   C        1.71169         1.32234        -6.04505
   C        1.71465        -0.08069        -5.79182
   C        2.92404        -0.74652        -5.48595
   C        4.08973        -0.03056        -5.43322
   C        4.07812         1.37491        -5.67055
   C        2.92569         2.04104        -5.97415
   C        5.44508         1.90914        -5.51584
   O        5.82655         3.04312        -5.69299
   C        6.25950         0.75961        -5.03038
   C        5.46675        -0.44668        -5.18667
   C        5.95249        -1.71803        -5.33145
   C        7.32806        -2.03071        -5.36771
   N        8.42924        -2.33276        -5.48364
   C        5.13705        -2.84482        -5.56126
   N        4.50715        -3.79052        -5.72376
   C        7.47308         0.97247        -4.46960
   C        8.23651         0.07398        -3.64151
   C        9.62989         0.11411        -3.70389
   C       10.34472        -0.78354        -2.93359
   C        9.69204        -1.68055        -2.04818
   C        8.30378        -1.66909        -1.95115
   C        7.59177        -0.81010        -2.75323
   C       10.72258        -2.44352        -1.42172
   C       11.95190        -1.97754        -1.95900
   N       11.70087        -0.97454        -2.86044
   C       12.65974        -0.25991        -3.65468
   C       13.15550        -2.53059        -1.55978
   C       13.14547        -3.56135        -0.62108
   C       11.92250        -4.01365        -0.08641
   C       10.72447        -3.46596        -0.47756
   C       14.38818        -4.16705        -0.20473
   C       14.58057        -5.32568         0.51373
   C       15.93626        -5.61244         0.71425
   C       16.78411        -4.65560         0.14544
   S       15.91882        -3.41296        -0.63700
   C       18.13216        -5.04176         0.38877
   C       18.12964        -6.24268         1.10723
   C       16.75048        -6.64202         1.34208
   C       16.31265        -7.74743         2.01118
   C       17.20272        -8.68345         2.57724
   N       17.92398        -9.44776         3.03657
   C       14.94086        -8.02422         2.18579
   N       13.82642        -8.25155         2.33302
   C       19.41926        -6.71089         1.38800
   C       20.39903        -5.87789         0.89730
   S       19.71130        -4.48451         0.07128
   C       21.83322        -6.02662         0.97595
   C       22.66037        -4.94220         0.68755
   C       24.03119        -5.11349         0.75742
   C       24.59514        -6.36539         1.11661
   C       23.75968        -7.44086         1.40363
   C       22.39799        -7.26708         1.33363
   C       26.01163        -6.19044         1.09148
   C       26.24012        -4.83547         0.73209
   N       25.03715        -4.21077         0.52433
   C       24.86897        -2.84615         0.11251
   C       27.52164        -4.32394         0.64916
   C       28.59476        -5.19456         0.84010
   C       28.36450        -6.54057         1.18663
   C       27.09067        -7.03487         1.33384
   C       29.93878        -4.68847         0.71673
   C       31.02959        -5.33809         0.24786
   C       32.39683        -4.82846         0.55026
   O       32.68208        -3.73987         0.99333
   C       33.30297        -5.95345         0.24831
   C       34.64755        -6.05366         0.46306
   C       35.31540        -7.24747         0.11074
   C       34.57077        -8.32350        -0.45518
   C       35.24270        -9.51244        -0.80055
   C       36.58990        -9.60740        -0.58949
   C       37.33970        -8.56079        -0.03504
   C       36.70339        -7.40045         0.30743
   F       37.23387       -10.74111        -0.92055
   C       33.17952        -8.19111        -0.67026
   C       32.55587        -7.02080        -0.32997
   C       31.16839        -6.59123        -0.47227
   C       30.25025        -7.13522        -1.32924
   C       29.01948        -6.52503        -1.65154
   N       28.04656        -6.03460        -2.01236
   C       30.47283        -8.31526        -2.06789
   N       30.60349        -9.28504        -2.66790
   H        0.48028        -1.85193        -5.67118
   H       -1.61479         1.73228        -6.65704
   H        0.50192         3.02444        -6.54997
   H        2.89784        -1.80716        -5.29144
   H        2.93991         3.10482        -6.15845
   H        7.88960         1.96306        -4.62485
   H       10.11968         0.79458        -4.38312
   H        7.79760        -2.33010        -1.26458
   H        6.51433        -0.77824        -2.68060
   H       13.66340        -0.59435        -3.40567
   H       12.58992         0.81357        -3.46209
   H       12.48206        -0.43892        -4.71813
   H       14.09591        -2.19036        -1.96817
   H       11.92894        -4.79956         0.65102
   H        9.79592        -3.82300        -0.05987
   H       13.77831        -5.94858         0.86273
   H       19.62545        -7.60960         1.93890
   H       22.22488        -3.98907         0.42596
   H       24.17688        -8.39847         1.67404
   H       21.74649        -8.10021         1.54174
   H       25.68798        -2.56066        -0.54668
   H       24.85298        -2.17010         0.97294
   H       23.93341        -2.74194        -0.43441
   H       27.70811        -3.29270         0.39164
   H       29.21406        -7.17905         1.38117
   H       26.92734        -8.06154         1.62336
   H       30.11843        -3.68589         1.09276
   H       35.19616        -5.23062         0.89605
   H       34.69781       -10.33705        -1.23292
   H       38.40024        -8.69379         0.10863
   H       37.25958        -6.58029         0.73588
   H       32.63812        -9.02319        -1.09211
*
