# ORCA input file
# SCF done       -208.954969478848          0.000447101193
! CAM-B3LYP def2-SVP def2/J RIJCOSX Grid4 TightSCF
%maxcore 5000
%tddft
    Mode sTDDFT
    Ethresh 5.0
    maxcore 5000
end

%pal
  nprocs 6
  end
* xyz 0 1
   C        4.65689         4.92052         6.60991
   C        3.86876         5.96034         7.01848
   F        3.88495         6.33546         8.30911
   C        3.03368         6.66228         6.13779
   C        3.00462         6.29709         4.82090
   C        3.79831         5.23307         4.34459
   C        4.63845         4.52920         5.25694
   C        5.43600         3.45236         4.80549
   C        5.39581         3.09478         3.48436
   C        4.56966         3.81568         2.57317
   C        3.78365         4.85413         2.98432
   C        4.74504         3.26988         1.21619
   O        4.17602         3.58918         0.19930
   C        5.84168         2.26212         1.34068
   C        6.07016         2.02443         2.75594
   C        6.60708         0.89824         3.31693
   C        7.03095        -0.22535         2.57668
   N        7.33761        -1.18317         2.02405
   C        6.71887         0.69493         4.70880
   N        6.84134         0.49481         5.83187
   C        6.48733         1.84372         0.22852
   C        7.74616         1.16067         0.14092
   C        8.03174         0.24775        -0.88871
   N        9.17510        -0.38187        -0.98480
   C       10.08832        -0.14883        -0.03741
   N        9.94904         0.74869         0.94076
   C        8.81777         1.40071         1.01669
   C       11.31656        -0.88859        -0.08668
   C       11.69619        -1.79779        -1.03114
   C       12.97611        -2.34809        -0.78982
   C       13.65431        -3.33060        -1.54177
   C       13.13579        -3.86008        -2.78535
   C       13.21953        -5.14209        -3.25267
   C       12.66132        -5.29075        -4.53908
   C       12.16448        -4.13751        -5.07643
   S       12.36961        -2.83020        -3.96517
   C       11.50562        -3.94291        -6.39277
  Cl       12.62077        -6.80023        -5.36442
   C       14.87778        -3.75786        -1.03605
   C       15.45113        -3.24971         0.15666
   C       14.77572        -2.26553         0.90665
   C       13.55141        -1.83187         0.40183
   S       12.50810        -0.65918         1.15780
   C       15.29719        -1.73683         2.15003
   C       15.21657        -0.45521         2.61710
   C       15.77857        -0.30569         3.90237
   C       16.27540        -1.45744         4.44150
   S       16.06438        -2.76589         3.33141
   C       16.93722        -1.65779         5.75517
  Cl       15.82356         1.20833         4.71915
   C       16.72952        -3.80735         0.40148
   C       17.12990        -4.71114        -0.53897
   S       15.92701        -4.91965        -1.79587
   C       18.35402        -5.46102        -0.57744
   C       19.33505        -5.39129         0.42591
   N       20.44165        -6.09266         0.38141
   C       20.60729        -6.93384        -0.64010
   N       19.75302        -7.06111        -1.65974
   C       18.66455        -6.33114        -1.63388
   C       21.83256        -7.69914        -0.65062
   C       22.11183        -8.80960        -1.36267
   C       23.53659        -9.23651        -1.54465
   O       24.48636        -8.87503        -0.89383
   C       23.51901       -10.12767        -2.71827
   C       24.57251       -10.68471        -3.38632
   C       24.32240       -11.49406        -4.51597
   C       22.97722       -11.70497        -4.94040
   C       22.73639       -12.50605        -6.07392
   C       23.79272       -13.06487        -6.73774
   C       25.12168       -12.87174        -6.33458
   C       25.37406       -12.09593        -5.23798
   F       23.56487       -13.83019        -7.81950
   C       21.90536       -11.12130        -4.22673
   C       22.17108       -10.35126        -3.12595
   C       21.28192        -9.67310        -2.18879
   C       19.96935        -9.97929        -1.97559
   C       19.21209        -9.49865        -0.88469
   N       18.56438        -9.20875         0.01693
   C       19.24133       -10.89306        -2.76725
   N       18.60730       -11.62014        -3.38840
   H        5.28442         4.40038         7.31661
   H        2.43392         7.47389         6.51805
   H        2.36985         6.82265         4.12356
   H        6.06837         2.94244         5.51497
   H        3.15923         5.38117         2.27860
   H        6.01929         2.11428        -0.71325
   H        7.29074         0.01108        -1.64140
   H        8.76028         2.17335         1.77455
   H       11.05633        -2.05631        -1.85325
   H       13.62534        -5.96458        -2.69382
   H       11.94845        -4.60913        -7.13070
   H       11.61079        -2.91308        -6.72500
   H       10.44155        -4.17429        -6.32388
   H       14.80531         0.36507         2.05970
   H       18.02187        -1.60378         5.64994
   H       16.68559        -2.63277         6.16659
   H       16.62226        -0.88084         6.44818
   H       17.33748        -3.53120         1.24180
   H       19.22259        -4.74588         1.28650
   H       17.99573        -6.44001        -2.47949
   H       22.63490        -7.28148        -0.05360
   H       25.58536       -10.50864        -3.05628
   H       21.72626       -12.67961        -6.41042
   H       25.91397       -13.33872        -6.89784
   H       26.38896       -11.93257        -4.90819
   H       20.89803       -11.28914        -4.57355
*
