# ORCA input file
# SCF done       -238.471964524205          0.000749529162
! CAM-B3LYP def2-SVP def2/J RIJCOSX Grid4 TightSCF
%maxcore 5000
%tddft
    Mode sTDDFT
    Ethresh 5.0
    maxcore 5000
end

%pal
  nprocs 6
  end
* xyz 0 1
   C        2.71639        -6.44797        -7.12045
   C        1.52769        -6.84646        -7.66497
   F        1.52981        -7.65054        -8.74380
   C        0.28988        -6.44894        -7.14100
   C        0.26710        -5.63301        -6.04445
   C        1.46324        -5.19143        -5.44220
   C        2.71180        -5.60433        -5.99243
   C        3.92502        -5.16313        -5.41555
   C        3.88797        -4.33627        -4.32521
   C        2.63737        -3.94558        -3.76533
   C        1.45152        -4.35262        -4.30556
   C        2.87675        -3.10118        -2.57879
   O        2.05744        -2.54975        -1.88041
   C        4.35330        -3.11490        -2.37864
   C        4.95735        -3.69684        -3.56338
   C        6.22693        -3.47884        -4.02695
   C        7.17521        -2.63980        -3.40387
   N        7.97757        -1.92767        -2.99626
   C        6.71534        -3.99850        -5.24395
   N        7.16827        -4.41169        -6.21456
   C        4.88020        -2.69987        -1.20100
   C        6.20346        -2.94121        -0.69153
   C        6.87803        -4.14135        -0.97296
   C        8.15624        -4.32492        -0.51104
   C        8.77937        -3.31906         0.25399
   C        8.10499        -2.14949         0.57483
   C        6.81711        -1.97506         0.11489
   C       10.10742        -3.76433         0.60902
   C       10.30208        -5.05005         0.07984
   C        9.09137        -5.49727        -0.71154
   C        8.50439        -6.80894        -0.16929
   C        8.21611        -6.73998         1.32637
   C        9.52628        -5.61814        -2.19247
   C        8.51486        -6.25408        -3.13703
   C       11.48539        -5.71573         0.28656
   C       12.51897        -5.09316         1.00089
   C       12.30947        -3.81015         1.52151
   C       11.11371        -3.14646         1.33907
   C       13.77175        -5.80167         1.16144
   C       14.96441        -5.21139         1.35445
   C       16.23622        -5.85968         1.46174
   S       17.64299        -4.90846         1.08018
   C       18.70663        -6.25072         1.37078
   C       17.99441        -7.36105         1.76869
   C       16.59662        -7.14534         1.80933
   C       15.62981        -8.22371         2.19040
   C       16.33166        -9.40748         2.85073
   C       17.56903        -9.81020         2.03382
   C       17.14514       -10.10879         0.61706
   O       16.54607       -11.08933         0.27681
   C       18.60425        -8.68993         2.10140
   C       20.12306        -6.08724         1.10627
   C       20.51833        -5.23471         0.06574
   C       21.84950        -5.10671        -0.24114
   C       22.82124        -5.81217         0.48827
   C       22.44448        -6.62354         1.54788
   C       21.10236        -6.75389         1.85015
   C       24.11655        -5.53878        -0.09414
   C       23.94477        -4.65231        -1.17494
   C       22.49537        -4.24631        -1.30454
   C       21.93381        -4.53216        -2.70500
   C       22.09754        -5.99192        -3.11226
   C       22.27055        -2.77268        -0.88882
   C       23.03844        -1.73491        -1.69650
   C       25.00782        -4.31732        -1.97464
   C       26.27833        -4.84875        -1.69825
   C       26.43755        -5.70601        -0.59909
   C       25.37151        -6.05289         0.20352
   C       27.39985        -4.60110        -2.56250
   C       27.49804        -3.61682        -3.48615
   C       28.61130        -3.43020        -4.34781
   C       29.49506        -4.34750        -4.83120
   C       30.79072        -3.87094        -5.38800
   O       31.08675        -2.72739        -5.65255
   C       31.63879        -5.07343        -5.49238
   C       32.95595        -5.16919        -5.83701
   C       33.57707        -6.43808        -5.83998
   C       32.81729        -7.58697        -5.47359
   C       33.44451        -8.84818        -5.46916
   C       34.76232        -8.94340        -5.81952
   C       35.52561        -7.82635        -6.18550
   C       34.93319        -6.59433        -6.19291
   F       35.36309       -10.14768        -5.81686
   C       31.45225        -7.45789        -5.12663
   C       30.86830        -6.22009        -5.14583
   C       29.49525        -5.79492        -4.87653
   C       28.40471        -6.62501        -4.91619
   C       27.06388        -6.19299        -4.88465
   N       25.95044        -5.91350        -4.90384
   C       28.48972        -8.02402        -5.06788
   N       28.49925        -9.16762        -5.17006
   H        3.65092        -6.76971        -7.55287
   H       -0.61562        -6.79473        -7.61381
   H       -0.67406        -5.31356        -5.62283
   H        4.85549        -5.49695        -5.84703
   H        0.51455        -4.03734        -3.87143
   H        4.19791        -2.15824        -0.55293
   H        6.35838        -4.91671        -1.51701
   H        8.57969        -1.38857         1.17513
   H        6.28029        -1.06478         0.33727
   H        9.21021        -7.61818        -0.36737
   H        7.57695        -7.03120        -0.69853
   H        9.12859        -6.55252         1.88781
   H        7.78741        -7.67908         1.66894
   H        7.51107        -5.94020         1.54368
   H       10.44606        -6.20600        -2.22719
   H        9.76509        -4.61247        -2.54848
   H        8.34667        -7.29988        -2.89286
   H        8.89138        -6.20015        -4.15626
   H        7.56278        -5.73262        -3.10900
   H       11.64093        -6.70917        -0.11046
   H       13.09346        -3.34033         2.09577
   H       10.96633        -2.16102         1.75475
   H       13.71418        -6.87172         1.03127
   H       15.01740        -4.13010         1.36652
   H       15.12087        -8.57995         1.28808
   H       14.86828        -7.81497         2.85981
   H       15.64229       -10.24999         2.91765
   H       16.64914        -9.14098         3.86098
   H       17.98291       -10.73082         2.45912
   H       17.42681        -9.32708        -0.11679
   H       19.43851        -8.89654         1.42574
   H       19.00416        -8.65810         3.12000
   H       19.76399        -4.70658        -0.49904
   H       23.18543        -7.14816         2.13240
   H       20.81027        -7.35804         2.69334
   H       22.44675        -3.90469        -3.43404
   H       20.87487        -4.26499        -2.71660
   H       23.15016        -6.25780        -3.17401
   H       21.64700        -6.15908        -4.08756
   H       21.61543        -6.65036        -2.39237
   H       22.55144        -2.67382         0.16332
   H       21.20053        -2.56706        -0.96397
   H       24.11016        -1.85636        -1.56264
   H       22.76573        -0.73898        -1.35376
   H       22.80320        -1.80177        -2.75524
   H       24.86805        -3.70350        -2.84902
   H       27.41823        -6.11017        -0.39051
   H       25.50665        -6.73102         1.03279
   H       28.24967        -5.26019        -2.42334
   H       26.73242        -2.85538        -3.53973
   H       28.83142        -2.40557        -4.63446
   H       33.51807        -4.28703        -6.10453
   H       32.88615        -9.73037        -5.19736
   H       36.56144        -7.96300        -6.45276
   H       35.50044        -5.71888        -6.47117
   H       30.90494        -8.34366        -4.84575
*
