# ORCA input file
# SCF done       -169.081457403345          0.000369201311
! CAM-B3LYP def2-SVP def2/J RIJCOSX Grid4 TightSCF
%maxcore 5000
%tddft
    Mode sTDDFT
    Ethresh 5.0
    maxcore 5000
end

%pal
  nprocs 6
  end
* xyz 0 1
   C       -3.76378         1.38309        -6.42350
   C       -3.24213         1.25809        -7.70286
   C       -2.59808         0.09644        -8.10265
   C       -2.44869        -0.97133        -7.23011
   C       -2.96422        -0.85758        -5.94998
   C       -3.63018         0.32065        -5.54377
   C       -4.08852         0.15151        -4.16979
   C       -4.70775         1.10950        -3.41159
   C       -4.96918         2.42287        -3.85765
   N       -5.21420         3.50605        -4.14888
   C       -5.15404         0.96455        -2.08020
   N       -5.55242         0.95413        -1.00299
   C       -3.78682        -1.22375        -3.79083
   C       -2.93421        -1.77934        -4.82567
   C       -2.07419        -2.83896        -4.69141
   C       -1.85150        -3.54119        -3.49131
   N       -1.60018        -4.13774        -2.54227
   C       -1.25910        -3.33258        -5.72889
   N       -0.59799        -3.80968        -6.53783
   C       -4.30588        -1.84387        -2.68493
   C       -4.44479        -3.22622        -2.41510
   C       -4.61373        -3.64346        -1.06736
   C       -4.72066        -5.02034        -0.69511
   N       -4.79522        -5.33913         0.61557
   C       -4.77771        -4.38344         1.50687
   C       -4.71397        -3.02999         1.12933
   N       -4.62859        -2.68249        -0.12300
   C       -4.73628        -6.06400        -1.66923
   C       -4.68381        -5.63620        -3.01949
   C       -4.52537        -4.24872        -3.38418
   N       -4.50783        -4.08300        -4.70758
   S       -4.66117        -5.51509        -5.42013
   N       -4.76282        -6.41565        -4.09873
   C       -4.78216        -7.43773        -1.32843
   N       -4.82314        -7.87036        -0.02322
   C       -4.86377        -9.22098        -0.01635
   C       -4.91731       -10.34105         0.79899
   C       -4.93843       -11.45311        -0.06208
   N       -4.89862       -11.02225        -1.37101
   C       -4.84934        -9.66452        -1.37724
   C       -4.79516        -8.55507        -2.19686
   C       -5.00363       -12.81252         0.31969
   C       -5.06843       -13.87287        -0.52501
   C       -5.13302       -15.22182        -0.06458
   N       -5.11752       -15.48374         1.23822
   N       -5.11722       -16.68370         1.72072
   C       -5.12752       -17.77383         0.96545
   C       -5.21547       -17.63754        -0.44413
   C       -5.21200       -16.31088        -0.97969
   N       -5.26899       -16.30559        -2.30777
   S       -5.30993       -17.83043        -2.82252
   N       -5.26691       -18.56634        -1.39429
   C       -5.09090       -19.06115         1.60819
   C       -4.42683       -19.35142         2.74452
   C       -4.75261       -20.59338         3.52397
   O       -5.38908       -21.54382         3.13785
   C       -4.16787       -20.32879         4.83267
   C       -3.44660       -19.13735         4.83863
   C       -3.46748       -18.56210         3.51031
   C       -2.58747       -17.62752         3.04356
   C       -2.44237       -17.26683         1.68836
   N       -2.23340       -16.98386         0.59563
   C       -1.66037       -16.99089         3.89570
   N       -0.90691       -16.46138         4.57961
   C       -2.86686       -18.85996         6.09102
   C       -3.16967       -19.83586         6.99411
   S       -4.14161       -21.10818         6.35399
   H       -4.26391         2.29233        -6.13374
   H       -3.34383         2.07879        -8.39652
   H       -2.20720         0.01962        -9.10586
   H       -1.95130        -1.87122        -7.55333
   H       -4.71138        -1.21829        -1.90005
   H       -4.83282        -4.68672         2.54349
   H       -4.74297        -2.23033         1.85581
   H       -4.81747        -7.19556         0.73637
   H       -4.94013       -10.39023         1.86866
   H       -4.88476       -11.62574        -2.17426
   H       -4.76867        -8.50030        -3.26468
   H       -5.00847       -13.01779         1.38060
   H       -5.07524       -13.75893        -1.59965
   H       -5.68958       -19.84508         1.15974
   H       -2.27187       -17.99490         6.31799
   H       -2.86542       -19.88486         8.02150
*
