# ORCA input file
# SCF done       -213.511912311838          0.000613486273
! CAM-B3LYP def2-SVP def2/J RIJCOSX Grid4 TightSCF
%maxcore 5000
%tddft
    Mode sTDDFT
    Ethresh 5.0
    maxcore 5000
end

%pal
  nprocs 6
  end
* xyz 0 1
   C       -6.13784         0.38699         7.01289
   C       -6.34579        -0.21078         8.24705
   C       -6.03798        -1.54754         8.45815
   C       -5.50355        -2.32437         7.44147
   C       -5.29013        -1.73737         6.20544
   C       -5.61259        -0.37903         5.98384
   C       -5.30867        -0.03956         4.59928
   C       -5.38156         1.20887         4.04383
   C       -5.75629         2.36982         4.75461
   N       -6.05134         3.35154         5.27028
   C       -5.06385         1.53008         2.70681
   N       -4.82433         1.86332         1.63458
   C       -4.93652        -1.28532         3.93490
   C       -4.71705        -2.27624         4.98338
   C       -3.87152        -3.35086         4.91067
   C       -3.09078        -3.66277         3.77796
   N       -2.41157        -3.92752         2.89114
   C       -3.61206        -4.22166         5.98933
   N       -3.37717        -4.97287         6.82440
   C       -4.90410        -1.46816         2.58129
   C       -4.98189        -2.68172         1.86070
   C       -4.57219        -2.86542         0.54786
   C       -4.81708        -4.15563         0.09341
   C       -5.47306        -4.95702         1.05116
   S       -5.75481        -4.13107         2.51137
   C       -5.68611        -6.24091         0.50056
   C       -5.14878        -6.26534        -0.79935
   C       -4.59138        -4.95342        -1.09966
   C       -3.98785        -4.56431        -2.25791
   C       -3.82792        -5.44733        -3.34749
   N       -3.70420        -6.16650        -4.23157
   C       -3.49379        -3.25566        -2.45012
   N       -3.09588        -2.19427        -2.61772
   C       -5.29355        -7.50180        -1.42224
   C       -5.94607        -8.41600        -0.61099
   S       -6.38159        -7.73705         0.94821
   C       -6.26543        -9.76201        -0.91682
   C       -7.01278       -10.64547        -0.15749
   C       -7.12873       -11.89040        -0.77231
   C       -6.45394       -11.95718        -2.00481
   S       -5.69107       -10.48599        -2.41270
   C       -6.62563       -13.25616        -2.54419
   C       -7.41857       -14.00849        -1.65903
   C       -7.75969       -13.17590        -0.51585
   C       -8.51238       -13.52555         0.56568
   C       -9.07439       -14.81308         0.70086
   N       -9.52933       -15.85964         0.80901
   C       -8.77683       -12.62125         1.61642
   N       -8.99179       -11.88284         2.46652
   C       -7.64839       -15.30777        -2.10749
   C       -7.02845       -15.55260        -3.32023
   S       -6.15265       -14.15064        -3.91886
   C       -7.04024       -16.75564        -4.06944
   C       -6.33415       -17.03125        -5.22825
   C       -6.58385       -18.31992        -5.69374
   C       -7.49557       -19.02770        -4.88853
   S       -8.03281       -18.10913        -3.55228
   C       -7.69810       -20.31136        -5.45039
   C       -6.89860       -20.41817        -6.60877
   C       -6.18008       -19.17107        -6.80190
   C       -5.33517       -18.86373        -7.82734
   C       -5.05758       -19.79498        -8.85067
   N       -4.84447       -20.56816        -9.67010
   C       -4.69517       -17.61012        -7.92220
   N       -4.17319       -16.59166        -7.98751
   C       -7.04723       -21.63406        -7.25896
   C       -7.96651       -22.45982        -6.62497
   S       -8.61351       -21.71512        -5.16522
   C       -8.38430       -23.76740        -6.95558
   C       -8.27684       -24.40643        -8.15855
   C       -8.34921       -25.85769        -8.31746
   C       -8.89707       -26.76157        -7.44861
   C       -9.54208       -26.44253        -6.23452
   N      -10.08414       -26.25381        -5.24010
   C       -8.93617       -28.15395        -7.67979
   N       -9.00320       -29.29264        -7.80400
   C       -7.73270       -26.16886        -9.59995
   C       -7.46561       -24.96076       -10.28320
   C       -6.84843       -24.96892       -11.52291
   C       -6.50627       -26.19146       -12.08111
   C       -6.78040       -27.38026       -11.41915
   C       -7.39361       -27.38361       -10.17508
   C       -7.95417       -23.85640        -9.47256
   C       -8.30183       -22.62307        -9.95253
   C       -8.08115       -22.20676       -11.28360
   N       -7.93296       -21.81284       -12.35047
   C       -9.00824       -21.65127        -9.21514
   N       -9.61165       -20.83933        -8.67226
   H       -6.38769         1.42498         6.86806
   H       -6.75739         0.37590         9.05392
   H       -6.21660        -1.99116         9.42554
   H       -5.27433        -3.36377         7.61245
   H       -4.88215        -0.58688         1.95284
   H       -4.08621        -2.08963        -0.01602
   H       -4.95247        -7.74279        -2.41308
   H       -7.44656       -10.37698         0.78908
   H       -8.22878       -16.05031        -1.58979
   H       -5.67438       -16.32046        -5.69286
   H       -6.48949       -21.93189        -8.12812
   H       -8.78404       -24.33460        -6.12544
   H       -6.62054       -24.05059       -12.03926
   H       -6.01769       -26.21572       -13.04296
   H       -6.50747       -28.31990       -11.87443
   H       -7.58969       -28.31620        -9.67220
*
