# ORCA input file
# SCF done       -226.924846481251          0.000653455527
! CAM-B3LYP def2-SVP def2/J RIJCOSX Grid4 TightSCF
%maxcore 5000
%tddft
    Mode sTDDFT
    Ethresh 5.0
    maxcore 5000
end

%pal
  nprocs 6
  end
* xyz 0 1
   C       -0.21249        -0.51579        -6.49913
   C        0.33059        -0.81225        -5.28630
   C        0.18729         0.26015        -4.38479
   C       -0.47300         1.35340        -4.95697
   S       -0.91190         1.06776        -6.58142
   C       -0.56763         2.38737        -3.98258
   C        0.03498         1.94197        -2.79904
   C        0.52631         0.58449        -3.01134
   C        1.16462        -0.21038        -2.10546
   C        1.43251         0.21486        -0.78703
   N        1.65436         0.55416         0.28544
   C        1.59552        -1.51548        -2.42425
   N        1.94822        -2.57650        -2.67865
   C        0.00457         2.89387        -1.77774
   C       -0.62048         4.06049        -2.17991
   S       -1.17922         3.97354        -3.84318
   C       -0.81820         5.24639        -1.42252
   C       -0.36624         5.51843        -0.14362
   C       -0.72467         6.80167         0.27327
   C       -1.46001         7.50695        -0.69196
   S       -1.70894         6.59460        -2.11258
   C       -1.75427         8.79881        -0.18523
   C       -1.19757         8.91442         1.09786
   C       -0.54208         7.66050         1.43524
   C        0.10330         7.35433         2.59621
   C        0.21251         8.27457         3.66056
   N        0.30221         9.01779         4.52886
   C        0.70295         6.09558         2.81458
   N        1.19099         5.07437         2.99688
   C       -1.41158        10.17058         1.67055
   C       -2.13069        11.00228         0.83725
   S       -2.55547        10.22280        -0.68035
   C       -2.51370        12.35128         1.07157
   C       -3.30555        13.14268         0.28969
   C       -3.46941        14.45500         0.79193
   C       -4.23966        15.50057         0.24327
   C       -5.08423        15.27730        -0.91207
   C       -5.87536        14.19476        -1.17237
   C       -6.56895        14.30955        -2.39632
   C       -6.31743        15.46221        -3.08204
   S       -5.20154        16.44715        -2.19802
   C       -6.86798        15.91048        -4.38547
  Cl       -7.63971        13.08365        -2.96167
   C       -4.15197        16.73210         0.87990
   C       -3.38804        16.95040         2.05397
   C       -2.67883        15.88499         2.64681
   C       -2.72601        14.66487         1.97962
   S       -1.91786        13.20378         2.48167
   C       -1.95169        16.03214         3.89068
   C       -0.76505        15.45808         4.24764
   C       -0.37881        15.77359         5.56832
   C       -1.25863        16.57186         6.23970
   S       -2.59958        16.96201         5.21767
   C       -1.17553        17.09043         7.62794
  Cl        1.08541        15.18886         6.25919
   C       -3.44118        18.30173         2.46920
   C       -4.23744        19.08570         1.68394
   S       -4.96960        18.18398         0.37328
   C       -4.48604        20.47968         1.80793
   C       -5.35257        21.24619         1.05594
   C       -5.32461        22.58995         1.43472
   C       -4.42231        22.84403         2.47970
   S       -3.62217        21.43045         3.00701
   C       -4.44762        24.23327         2.77167
   C       -5.37087        24.85335         1.91550
   C       -5.96041        23.84041         1.05300
   C       -6.91347        24.02623         0.09548
   C       -7.46422        25.29640        -0.17617
   N       -7.91260        26.32822        -0.39787
   C       -7.41566        22.96297        -0.68436
   N       -7.82975        22.10442        -1.32162
   C       -5.45434        26.23245         2.11193
   C       -4.59917        26.66503         3.10723
   S       -3.68176        25.34478         3.81866
   C       -4.40488        27.99511         3.56224
   C       -3.53026        28.43723         4.53621
   C       -3.60293        29.82047         4.71177
   C       -4.53887        30.42997         3.86676
   S       -5.33285        29.30885         2.85369
   C       -4.53291        31.83146         4.12262
   C       -3.59418        32.09856         5.12602
   C       -2.97629        30.85047         5.53278
   C       -2.01154        30.66847         6.47993
   C       -1.47109        31.74105         7.21979
   N       -1.02865        32.60903         7.82441
   C       -1.48944        29.39316         6.78112
   N       -1.06293        28.35766         7.02778
   C       -3.52140        33.46898         5.44222
   C       -4.38920        34.19787         4.68761
   S       -5.31580        33.24511         3.57510
   H       -0.24946        -1.13631        -7.37193
   H        0.80617        -1.74846        -5.05813
   H        0.41122         2.75242        -0.79368
   H        0.20018         4.81843         0.44192
   H       -1.06833        10.47993         2.64138
   H       -3.73661        12.79987        -0.63347
   H       -6.00149        13.36528        -0.50146
   H       -7.48844        15.12611        -4.81173
   H       -6.06407        16.14671        -5.08130
   H       -7.47272        16.80778        -4.25583
   H       -0.15953        14.86125         3.59166
   H       -0.27167        16.71761         8.10291
   H       -2.03963        16.77118         8.20971
   H       -1.15371        18.17992         7.63085
   H       -2.90007        18.69403         3.31073
   H       -5.96397        20.83121         0.27492
   H       -6.09501        26.89981         1.56394
   H       -2.87957        27.77504         5.07867
   H       -2.86899        33.89565         6.18187
   H       -4.55060        35.25692         4.71062
*
