# ORCA input file
# SCF done       -198.755406673017          0.000366244903
! CAM-B3LYP def2-SVP def2/J RIJCOSX Grid4 TightSCF
%maxcore 5000
%tddft
    Mode sTDDFT
    Ethresh 5.0
    maxcore 5000
end

%pal
  nprocs 6
  end
* xyz 0 1
   C       -2.56787        -2.10801         4.45788
   C       -2.13145        -1.74090         3.23575
   C       -0.71181        -1.63908         3.15972
   C        0.08034        -1.29683         2.04953
   C       -0.47491        -1.03360         0.73578
   C       -0.08372        -0.07919        -0.15797
   C       -0.79857        -0.14270        -1.37365
   C       -1.72717        -1.13958        -1.43359
   S       -1.73450        -2.02680         0.05353
   C       -2.64201        -1.49922        -2.54637
  Cl       -0.50627         0.95868        -2.66558
   C        1.45527        -1.23356         2.25957
   C        2.06133        -1.52019         3.50720
   C        1.27112        -1.90232         4.61076
   C       -0.10446        -1.92551         4.40697
   S       -1.29869        -2.34983         5.60404
   C        1.88185        -2.27470         5.86967
   C        3.00302        -3.02999         6.06609
   C        3.31420        -3.19722         7.43239
   C        2.45195        -2.57511         8.28809
   S        1.20972        -1.76561         7.39478
   C        2.47953        -2.53590         9.77178
  Cl        4.67340        -4.11483         7.95723
   C        3.46634        -1.36759         3.45635
   C        3.93565        -1.02303         2.21926
   S        2.64560        -0.84330         1.05064
   C        5.31047        -0.87372         1.84427
   C        5.70954        -0.48746         0.57053
   O        4.72776        -0.09132        -0.31616
   C        4.48673         1.30649        -0.30006
   C        7.07418        -0.47612         0.14205
   O        7.45452        -0.15302        -1.11369
   C        6.60847        -0.38565        -2.23036
   C        8.11046        -0.74077         1.03802
   C        7.73453        -1.01190         2.37311
   C        6.35647        -1.13042         2.76999
   N        6.34759        -1.45490         4.04714
   O        7.62131        -1.53415         4.42256
   N        8.47287        -1.27544         3.43409
   C        9.51344        -0.73837         0.69749
   S       10.66118        -0.10108         1.82226
   C       12.00198        -0.48012         0.78512
   C       11.55443        -1.08146        -0.38247
   C       10.15337        -1.23198        -0.42467
   S        9.25721        -2.16942        -1.60926
   C       10.28425        -2.42508        -3.01547
   O        9.83935        -3.08959        -3.91339
   C       11.67114        -1.83809        -3.13504
   O       12.19674        -1.74269        -4.20860
   S       12.65105        -1.45418        -1.70631
   C       13.31277        -0.14979         1.24281
   C       14.48200        -0.57815         0.73683
   C       15.75696        -0.17408         1.29496
   N       15.76951         0.72341         2.28605
   C       16.95012         1.07395         2.75908
   C       18.13635         0.54875         2.27106
   C       18.02804        -0.39567         1.24198
   N       16.83374        -0.74056         0.76362
   C       19.20842        -1.02420         0.67678
   C       19.10751        -2.01251        -0.22516
   C       20.12846        -2.76703        -0.88648
   N       19.81529        -3.80914        -1.61271
   C       20.95794        -4.30091        -2.14399
   C       22.01313        -3.52503        -1.77806
   N       21.50576        -2.52871        -0.96161
   C       22.30125        -1.55860        -0.35117
   O       22.16334        -1.17388         0.77691
   N       23.31160        -1.06883        -1.17672
   C       23.38336        -1.01444        -2.55530
   N       24.42961        -0.37926        -2.95645
   C       25.09965         0.01468        -1.82881
   C       24.42295        -0.37994        -0.72271
   H       -3.58136        -2.25286         4.77718
   H       -2.78838        -1.53845         2.41068
   H        0.66044         0.66774         0.04495
   H       -2.52787        -0.78664        -3.35948
   H       -3.67807        -1.49184        -2.20998
   H       -2.41822        -2.49844        -2.91961
   H        3.56743        -3.48913         5.27618
   H        3.31481        -3.12765        10.13767
   H        1.55328        -2.93576        10.18270
   H        2.58902        -1.51168        10.12706
   H        4.11863        -1.48780         4.30022
   H        3.69569         1.47949        -1.02658
   H        5.38233         1.87000        -0.58088
   H        4.15488         1.63952         0.68821
   H        5.94613         0.46029        -2.41885
   H        6.01688        -1.29238        -2.10525
   H        7.28105        -0.50512        -3.08006
   H       13.34940         0.49401         2.11204
   H       14.55082        -1.26257        -0.09317
   H       16.93892         1.80383         3.55944
   H       19.09533         0.84267         2.66519
   H       20.15358        -0.66629         1.05310
   H       18.11452        -2.33923        -0.50640
   H       20.95072        -5.17784        -2.75916
   H       23.06108        -3.61498        -1.97818
   H       22.63118        -1.42566        -3.19810
   H       26.01926         0.55816        -1.90222
   H       24.60948        -0.26375         0.32403
*
