# ORCA input file
# SCF done       -215.892043710305          0.000242895964
! CAM-B3LYP def2-SVP def2/J RIJCOSX Grid4 TightSCF
%maxcore 5000
%tddft
    Mode sTDDFT
    Ethresh 5.0
    maxcore 5000
end

%pal
  nprocs 6
  end
* xyz 0 1
   C       -0.91159        13.80672         2.26719
   C        0.00531        14.48309         1.50634
   C        0.15520        15.88723         1.51276
   N        0.33147        17.02041         1.46701
   C        0.93051        13.90664         0.61051
   N        1.71222        13.52346        -0.13915
   C       -1.86330        14.42224         3.18450
   C       -2.63717        13.39523         3.79772
   C       -3.61896        13.67063         4.70581
   C       -3.88043        15.01543         5.04901
   C       -3.11200        16.05056         4.44113
   C       -2.10049        15.73345         3.50595
   C       -3.38242        17.38982         4.78905
   C       -4.36429        17.69357         5.69255
   C       -5.11994        16.67362         6.29012
   C       -4.88299        15.36279         5.97559
   C       -2.20125        12.08766         3.29054
   O       -2.63919        11.00188         3.61349
   C       -1.12443        12.36567         2.31438
   C       -0.45771        11.44126         1.56943
   C       -0.59697        10.03264         1.50068
   C        0.16630         9.28885         0.62162
   C       -0.11145         7.91242         0.65505
   C        0.41098         6.85679        -0.11995
   C       -0.10280         5.57966         0.14445
   C       -1.12209         5.44575         1.12720
   N       -1.63521         6.42575         1.83174
   C       -1.13625         7.62656         1.60388
   S       -1.70577         9.03616         2.42738
   S       -1.64361         3.79694         1.33748
   C       -0.47052         3.28646         0.15336
   C        0.25443         4.29951        -0.38018
   F        1.23805         4.10124        -1.27014
   F       -0.34904         1.99747        -0.13538
   C        1.39395         7.07194        -1.16005
   C        1.33394         6.60367        -2.45080
   C        2.45817         6.97626        -3.19441
   C        3.38405         7.71688        -2.44621
   S        2.85461         7.99462        -0.84967
   C        4.51049         7.99737        -3.26967
   C        4.27936         7.44593        -4.54001
   C        2.97892         6.79267        -4.53845
   C        2.37565         6.14371        -5.57434
   C        1.09727         5.55869        -5.44882
   N        0.05379         5.09337        -5.35456
   C        2.98163         6.02393        -6.84326
   N        3.46907         5.92362        -7.87597
   C        5.34338         7.64865        -5.41978
   C        6.38237         8.33329        -4.82104
   S        6.03577         8.75096        -3.15138
   C        7.63890         8.66716        -5.39969
   C        8.73503         9.18430        -4.76509
   C        9.85036         9.33242        -5.62010
   C       11.14352         9.81098        -5.33972
   C       12.06172         9.78542        -6.39931
   C       11.60417         9.39694        -7.68397
   N       10.38545         8.99315        -7.96721
   C        9.54885         8.94221        -6.95403
   S        7.91884         8.37706        -7.11119
   S       12.85173         9.48153        -8.89689
   C       13.99237         9.95799        -7.67362
   C       13.45814        10.06865        -6.43196
   F       14.19211        10.34704        -5.34257
   F       15.26234        10.16144        -8.00113
   C       11.44203        10.27391        -4.00143
   C       12.10194        11.40275        -3.67587
   C       12.45235        11.83357        -2.32569
   C       11.85298        11.42093        -1.16808
   C       12.22457        11.87698         0.11518
   N       12.49144        12.20904         1.18041
   C       10.74378        10.54962        -1.11891
   N        9.81727         9.87639        -1.03344
   C       13.48393        12.85017        -2.45342
   C       13.61004        13.20434        -3.82927
   C       12.68261        12.39481        -4.63378
   O       12.41723        12.51725        -5.80818
   C       14.49870        14.15218        -4.24848
   C       15.32507        14.79030        -3.29696
   C       15.21095        14.43477        -1.92084
   C       14.27607        13.45699        -1.51373
   C       16.04582        15.07562        -0.98234
   C       16.94960        16.02216        -1.38125
   C       17.06084        16.37151        -2.73570
   C       16.26596        15.76908        -3.67286
   H       -4.18963        12.87097         5.15410
   H       -1.53909        16.54157         3.06522
   H       -2.79825        18.17176         4.32661
   H       -4.56438        18.72233         5.95172
   H       -5.89078        16.93172         7.00061
   H       -5.46138        14.57311         6.43216
   H        0.30337        11.81285         0.89369
   H        0.89229         9.74291        -0.02958
   H        0.50449         6.03817        -2.83421
   H        5.38247         7.31158        -6.43990
   H        8.74045         9.42474        -3.71605
   H       11.05393         9.64442        -3.21109
   H       14.57634        14.40628        -5.29511
   H       14.21592        13.20115        -0.46732
   H       15.95569        14.80406         0.05917
   H       17.58466        16.50705        -0.65521
   H       17.78007        17.11993        -3.03270
   H       16.34792        16.03365        -4.71682
*
