# ORCA input file
# SCF done       -169.826243355912          0.000400365659
! CAM-B3LYP def2-SVP def2/J RIJCOSX Grid4 TightSCF
%maxcore 5000
%tddft
    Mode sTDDFT
    Ethresh 5.0
    maxcore 5000
end

%pal
  nprocs 6
  end
* xyz 0 1
   C       -0.36836        11.30044        -2.12419
   N       -1.60893        11.67315        -2.07396
   C       -2.27186        10.65327        -1.43976
   C       -1.34416         9.57499        -1.09159
   C       -2.04689         8.48447        -0.40078
   O       -1.60101         7.44535         0.02778
   C       -3.44163         8.98589        -0.35707
   C       -3.52399        10.31638        -1.00802
   N       -4.79865        10.78958        -0.96359
   C       -5.48429         9.86726        -0.34460
   C       -4.69749         8.71200         0.06548
   C       -0.10240         9.98293        -1.52226
   C        1.13828         9.30765        -1.40375
   C        2.33111         9.82680        -1.79141
   C        3.58208         9.17973        -1.64690
   C        3.87769         7.91426        -1.15984
   C        5.24590         7.66256        -1.14833
   C        6.01143         8.74551        -1.62899
   S        5.03859        10.06026        -2.10522
   C        7.38209         8.40976        -1.54469
   C        7.49036         7.11055        -1.01180
   C        6.15302         6.59517        -0.75634
   C        5.82614         5.37069        -0.25470
   C        4.48780         4.97021        -0.05291
   N        3.40306         4.63798         0.11040
   C        6.80808         4.41829         0.09290
   N        7.60557         3.64527         0.37674
   C        8.80956         6.69755        -0.85840
   C        9.70526         7.67546        -1.26545
   S        8.90633         9.11963        -1.86072
   C       11.11389         7.62840        -1.20490
   C       11.98731         8.65325        -1.57889
   O       11.46586         9.78600        -2.09467
   C       12.36013        10.81883        -2.44861
   C       13.32882         8.34207        -1.34382
   C       13.50477         7.08420        -0.79793
   S       11.98464         6.26421        -0.57906
   C       14.72080         6.47893        -0.40394
   C       14.90157         5.20103         0.10249
   C       16.23208         4.95409         0.42535
   C       17.07554         6.05177         0.16903
   S       16.22579         7.38244        -0.48660
   C       18.39331         5.72294         0.55850
   C       18.38507         4.39923         1.06180
   C       17.03489         3.87300         0.98147
   C       16.60711         2.62708         1.33594
   C       15.26020         2.22876         1.20121
   N       14.16619         1.90454         1.09153
   C       17.49106         1.65455         1.84953
   N       18.21492         0.86666         2.26152
   C       19.63526         3.98169         1.49950
   C       20.59626         4.96897         1.33567
   S       19.93237         6.44511         0.63305
   C       21.96457         5.05496         1.66770
   N       22.53015         6.25649         1.53894
   C       23.79380         6.12000         1.96035
   C       24.06281         4.73323         2.38562
   C       25.45843         4.60761         2.84994
   O       26.02792         3.63095         3.28689
   C       25.98609         5.96908         2.66296
   C       24.94070         6.85967         2.12315
   N       25.42220         8.11269         1.94520
   C       26.67595         8.05368         2.33060
   C       27.09431         6.74671         2.78636
   C       22.90402         4.03203         2.18053
   C       22.63172         2.63016         2.35620
   C       23.47940         1.78392         2.94074
   H        0.36482        11.93916        -2.58562
   H       -6.53953         9.99461        -0.17471
   H       -5.07671         7.85513         0.58636
   H        1.09085         8.32656        -0.95215
   H        2.36549        10.81611        -2.22746
   H        3.12509         7.22131        -0.83168
   H        9.12926         5.74872        -0.46673
   H       11.74022        11.62573        -2.83403
   H       13.05631        10.48932        -3.22510
   H       12.92129        11.17143        -1.57860
   H       14.15714         8.99464        -1.55230
   H       14.08847         4.50799         0.22369
   H       19.82828         3.02296         1.94308
   H       27.29600         8.93263         2.29234
   H       28.07434         6.49143         3.13789
   H       21.69421         2.26487         1.96341
   H       24.42928         2.10917         3.33034
   H       23.24139         0.73848         3.03703
*
