# ORCA input file
# SCF done       -138.501437648884          0.000875909232
! CAM-B3LYP def2-SVP def2/J RIJCOSX Grid4 TightSCF
%maxcore 5000
%tddft
    Mode sTDDFT
    Ethresh 5.0
    maxcore 5000
end

%pal
  nprocs 6
  end
* xyz 0 1
   C        0.35569        -0.97807        -1.32666
   C        0.35483        -0.40824        -2.56558
   C        0.84229         0.92394        -2.55247
   S        1.00435         1.97177        -3.95169
   C       -0.00450         1.08572        -5.18968
   C        0.41884        -0.35828        -5.32286
   S       -0.23491        -1.34400        -3.93792
   C        1.21594         1.34133        -1.28083
   S        0.94319         0.07531        -0.11272
   C        1.77097         2.59018        -0.88983
   C        2.04768         3.06383         0.38720
   C        2.64666         4.34440         0.39658
   S        3.12740         5.29289         1.79819
   C        2.89431         4.13365         3.18314
   C        1.57204         3.41513         3.07975
   S        1.64952         2.10851         1.80908
   C        2.80600         4.87113        -0.87617
   S        2.23030         3.76322        -2.08745
   C        3.34340         6.11944        -1.29365
   C        4.13955         7.01272        -0.60414
   C        4.48129         8.12045        -1.38232
   C        3.93532         8.07998        -2.67402
   S        3.00931         6.66821        -2.93471
   C        4.34011         9.24772        -3.37223
   C        5.15096        10.01691        -2.52408
   C        5.26641         9.33649        -1.24442
   C        5.96470         9.74857        -0.14723
   C        6.69599        10.95460        -0.12388
   N        7.29613        11.93129        -0.08495
   C        6.00823         8.99834         1.04683
   N        6.05722         8.40122         2.02514
   C        5.60958        11.19436        -3.11828
   C        5.14802        11.33734        -4.41204
   S        4.13243         9.98212        -4.90041
   C        5.35833        12.39191        -5.34218
   C        6.30784        13.40244        -5.35294
   C        6.18864        14.25298        -6.47601
   S        7.24265        15.61017        -6.85106
   C        8.72436        15.16294        -5.88601
   C        8.38568        15.03998        -4.42125
   S        7.51247        13.47983        -4.07311
   C        5.13173        13.91956        -7.31471
   S        4.30189        12.51304        -6.71928
   C        4.68598        14.57317        -8.49576
   C        3.69527        14.17112        -9.38310
   C        3.49602        15.10273       -10.43433
   S        2.36406        15.00988       -11.78179
   C        1.24178        13.70029       -11.19613
   C        2.02363        12.47105       -10.79683
   S        2.80617        12.67384        -9.15884
   C        4.32737        16.17986       -10.34293
   S        5.37012        16.09971        -8.98866
   H        0.02746        -1.96583        -1.07501
   H        0.17221         1.63589        -6.11390
   H       -1.05581         1.16747        -4.91231
   H        1.50484        -0.45504        -5.34611
   H       -0.00696        -0.81345        -6.21709
   H        2.93883         4.76603         4.07027
   H        3.72654         3.42924         3.19701
   H        0.75888         4.09924         2.83563
   H        1.33885         2.88342         4.00193
   H        4.47619         6.85298         0.40192
   H        6.22448        11.92130        -2.62379
   H        9.42075        15.98238        -6.06292
   H        9.14043        14.23661        -6.28306
   H        7.76590        15.87286        -4.08794
   H        9.28351        14.98577        -3.80511
   H        0.58738        13.49362       -12.04306
   H        0.65066        14.08418       -10.36400
   H        2.79588        12.23616       -11.52985
   H        1.36749        11.61003       -10.66986
   H        4.37777        17.00990       -11.01753
*
