126
 SCF done       -248.067755359531          0.000952340194
C          -5.10924060858252  -12.42129106812110  -10.64120176472538
C          -5.13614421706522  -12.63505609642665  -12.00832927353177
C          -4.05149999884865  -12.19674706012441  -12.77249870727001
C          -4.05765634154861  -12.40958178500399  -14.17325594164550
N          -4.06748630538381  -12.58499457134788  -15.30448393869290
C          -2.95199215397851  -11.54994325305138  -12.17813826089323
C          -1.86632016541781  -11.11804580395191  -12.97678161904984
N          -0.97562835680990  -10.76066301306186  -13.60168292596246
C          -2.92886307663829  -11.33570074029834  -10.79847229654398
C          -4.00343358313233  -11.77482209614640  -10.05669671991737
C          -4.21477943634912  -11.67821088043182   -8.59668999010981
O          -3.45175815704645  -11.16388471949529   -7.79563205796851
C          -5.49887692640137  -12.31640586897116   -8.33027765412167
C          -6.06745935201396  -12.75783648850535   -9.58412354692077
C          -7.27934427021443  -13.36809808106950   -9.79076101086868
C          -7.76259511958804  -13.76227102642777  -11.05640175570896
N          -8.20837316039230  -14.10594278448536  -12.05654562613525
C          -8.21807652141617  -13.68224467609224   -8.78589830961974
N          -9.02628179737350  -13.96240516884991   -8.01917865970322
C          -6.06806206718957  -12.49224699407517   -7.08362547647585
C          -5.61533976722905  -12.12346465836815   -5.82209292825427
S          -4.12163126595110  -11.29910694643445   -5.45328161311988
C          -4.40582819876099  -11.34976752824241   -3.75417887881571
C          -5.66434932165747  -11.92775085096483   -3.45495937215047
C          -6.33706153474369  -12.38439310963090   -4.62418026981486
C          -7.59383991472138  -13.00032769495765   -4.50609826424151
C          -8.17208798276139  -13.12625835436524   -3.26790236329335
C          -9.51219586845767  -13.79151984214162   -3.10279126869840
F         -10.00126417394950  -14.26952929799190   -4.24996114922082
F          -9.45199304461460  -14.83078556598912   -2.25098222169384
F         -10.43657948414312  -12.94783577700551   -2.61257094378275
C          -7.54053680420802  -12.60675358902607   -2.11171288812046
C          -8.15250423990832  -12.68716751432297   -0.83813907583541
N          -8.59665569436444  -12.73583930448589    0.21627445645353
C          -6.30116022884347  -12.00495560828833   -2.21172126245632
C          -3.41095810257445  -10.85115256032514   -2.88093373225659
C          -3.23400029495264  -11.23120238683252   -1.58859421261599
C          -2.27826242916199  -10.70943092199788   -0.65966026683709
C          -2.18056447041993  -11.31395079288662    0.58158896308650
C          -1.30848407386681  -10.80999840864754    1.55926521758765
C          -1.04975130041303  -11.21574794494546    2.86482998198368
C          -1.61205814992275  -12.35984519973990    3.63258598910066
C          -3.14706608446258  -12.46589212020275    3.54182383547170
N          -3.66183261433438  -12.95189973659713    4.80753757401083
C          -0.93212222076862  -13.67556454850549    3.19621302957845
N           0.47568526113528  -13.62503649183120    3.54160230005070
C          -0.05636885358857  -10.30621840530176    3.38731516129632
C           0.55813848381187  -10.27657882978514    4.58329313141701
C           1.55002845378565   -9.21291361493534    4.91762451231003
C           1.81130540560071   -8.23451367391790    3.81858310328583
C           1.19830656176934   -8.29399204957619    2.62224401000694
C           0.25976445434714   -9.31923487191417    2.34846011494763
C          -0.49741171182725   -9.63849915820363    1.24056507820049
C          -0.60177838531401   -9.04970451483358   -0.04217627534431
C          -1.46096443295062   -9.56649854147362   -0.95449676031657
C           2.78163230700193   -9.86618988946362    5.48142403185669
C           4.02572293552360   -9.70025244706955    5.01673306825978
C           5.17967100059304  -10.32184778548185    5.58272345341794
S           5.06928572339343  -11.51748507123940    6.81709759006721
C           6.79004013301962  -11.72545541945838    6.92611744371101
C           7.43665110675914  -10.85567731000338    6.02228198145961
C           6.52023686498708  -10.07564420191954    5.25077577310365
C           7.00907864310900   -9.16225331990412    4.29696848281043
C           8.35794876278446   -9.03284712701704    4.11713649710714
C           8.90783867588218   -8.06578417625434    3.10444808515101
F           7.93806798214063   -7.39702187428833    2.46076453165897
F           9.69942398562693   -7.13787445156978    3.66262854138403
F           9.63418171520753   -8.67975500064534    2.15738967017491
C           9.27521060801355   -9.80844950881847    4.87971553855177
C          10.67058099311703   -9.66821627520146    4.68475968131612
N          11.80383717526892   -9.57930731859696    4.54872195597257
C           8.81555325454134  -10.70846600750609    5.81662003597564
C           7.41554251565748  -12.60126811144888    7.82945420902524
C           6.83198716594882  -13.55996746728990    8.61166181164180
C           5.51683782938458  -14.04344191267198    8.48700430691466
C           4.84600268958231  -14.83843739070216    9.37615361930063
C           3.69321781161525  -15.65435494426367    8.93107345081505
O           3.09231828755148  -15.56402532068924    7.88522657897270
C           3.47134953013039  -16.63262653875190   10.02371454204669
C           2.58765845934627  -17.68922096056976   10.06691136634615
C           2.58743393002131  -18.50240823303404   11.20225454680395
C           3.47307144647220  -18.23649492246289   12.26373201287012
C           4.35701131967453  -17.15601768043792   12.21527856394926
C           4.35090184952916  -16.35200470770774   11.08926817877061
C           5.12183216546017  -15.15242190578781   10.75644326774061
C           5.79690123204952  -14.36103557222933   11.64993580705516
C           6.00715887464555  -14.70292389506207   13.00188904289573
N           6.21689469157214  -14.95267073184865   14.10181351950506
C           6.24675919222506  -13.06089577009139   11.33601681139941
N           6.56657921228849  -11.97830758150469   11.13030913374308
C           3.46997842953426  -19.08246935869652   13.40069927460450
N           3.47680747513989  -19.76298069009374   14.32106159024638
C           1.69748314432438  -19.60064159084731   11.28170022452748
N           0.96967268614618  -20.48357809620914   11.32399346473382
H          -5.95865461956403  -13.12721542765151  -12.50188566701902
H          -2.09311583640049  -10.84207163845581  -10.32627472268328
H          -7.01739232161941  -13.00853235804198   -7.07161117475613
H          -8.11895134560266  -13.37112474085960   -5.37301809180684
H          -5.85530234701377  -11.57075727491899   -1.33187518234227
H          -2.70808178943877  -10.16826752968412   -3.33879163662927
H          -3.84552363417017  -12.03591445408243   -1.20287490239680
H          -2.78881918861314  -12.17875696136595    0.79995093986777
H          -1.37506681233025  -12.21591713556510    4.68971811773954
H          -3.42902114106529  -13.10175390411658    2.68653947410985
H          -3.56801845841946  -11.47035956352442    3.37804006444951
H          -3.36614437947041  -13.90776629685356    4.97281237006302
H          -4.67492750688447  -12.93320009969268    4.81597802760195
H          -1.11780187289830  -13.83362485367166    2.12024911958912
H          -1.37866344442535  -14.50671622134871    3.74757120020357
H           0.96126548225745  -12.95734162642723    2.95186618769024
H           0.91149794536711  -14.53147226094939    3.42048307998401
H           0.36768792770945  -11.02377117549390    5.34020798994915
H           1.10868039118682   -8.64629140294345    5.75876225206428
H           2.50556282643848   -7.44021933603293    4.04710026606994
H           1.40894609991356   -7.55897382298564    1.85940170082209
H           0.00199725463250   -8.18624348954466   -0.27873675105342
H          -1.54948719654653   -9.10654371072360   -1.92559562389619
H           2.60666082088056  -10.52182337353509    6.32487951340679
H           4.20513288370752   -9.05174785995960    4.17159287138223
H           6.32563238668618   -8.56782496349594    3.71199818784061
H           9.52538351912518  -11.28927606586377    6.38433386857439
H           8.48222559976683  -12.45999401642867    7.93970378708380
H           7.46410980579134  -14.03838390344973    9.34807275681862
H           5.00420061177837  -13.89116433242211    7.54216968676421
H           1.91592143640567  -17.88430059696063    9.24480933682345
H           5.02452874566706  -16.98149643586773   13.04454409555024
