112
 SCF done       -215.959335238744          0.000992310083
C           9.42287670849901  -10.17762144416192    7.57176262280988
C          10.76331736387514   -9.88176008971835    7.75760006561544
C          11.39939443758792  -10.36412191454932    8.90353690363481
C          12.77001138605108  -10.07241648221761    9.11256969506475
N          13.87790049828602   -9.83515432113245    9.27711213673131
C          10.70626746375549  -11.13518159807432    9.85601406098809
C          11.37719459445456  -11.61126875304244   11.00748892429618
N          11.89803862719432  -12.00387531654831   11.94888200951475
C           9.35547109349738  -11.42937386057294    9.66504836340962
C           8.74053210065009  -10.94594733881332    8.53048332574086
C           7.32804567232721  -11.12104645817115    8.11836303534322
O           6.49965734482642  -11.74823980544974    8.74586699028559
C           7.18844835038645  -10.38197456847365    6.85046537766921
C           8.48660040173653   -9.83529178024923    6.49872918355685
C           8.83425231176608   -9.15469549274079    5.35973681418553
C          10.13170593335014   -8.66404085221479    5.09640174442295
N          11.16129708117881   -8.24077677789889    4.81730369504992
C           7.99064790884831   -8.85100198142696    4.26928686667653
N           7.39274169790575   -8.56805110533794    3.33010091367013
C           6.05042752920498  -10.16456562192142    6.10709482072456
C           4.73777649436571  -10.63276476389198    6.24900185560749
S           3.56914343573695  -10.06760263119919    5.05978146071437
C           2.31169998144606  -11.01266253290334    5.77465434059692
C           2.78516644826215  -11.71875136958697    6.87692302553315
C           4.12417069297102  -11.50901665479816    7.14031608028844
C           0.99905610746085  -11.03841288449856    5.25026875595848
C           0.48449390754300  -10.34533834547284    4.16980124716862
C          -0.85168664806360  -10.63086899306099    3.91284108939429
C          -1.39523806740325  -11.55390303972067    4.78998539688918
S          -0.21859143382264  -12.06296594903887    5.96113806268072
C          -2.70641743569930  -12.09694673324165    4.79911017141110
S          -3.16715686806908  -13.28960072831823    5.97565921726027
C          -4.75776138486471  -13.43684973568465    5.28595687150149
C          -4.89845121343787  -12.58123704094770    4.20871497888813
C          -3.75614365568141  -11.83352968085767    3.93746847395958
C          -5.65523182065653  -14.38330392543333    5.84907672205777
C          -6.88318045623164  -14.69031260042382    5.37102575296306
C          -7.72073919813676  -15.69847644044457    5.92848020285993
S          -9.21311170868981  -16.12148497522989    5.10816802277001
C          -9.54239114040811  -17.37379134707211    6.26620355411379
C          -8.53761849866021  -17.42608128621718    7.25305084899264
C          -7.52376992045983  -16.47272359501347    7.04527307812768
C          -8.66456552643796  -18.39700001640563    8.26875759294641
C          -9.74102133962089  -19.29463411690389    8.21971106130749
S          -9.69897533211125  -20.37289607257839    9.58456529180128
C          -8.26589281673117  -19.62021187756216   10.18223488440526
C          -7.82953187484630  -18.61013468576700    9.39931327289375
C         -10.72198431964017  -19.25209715966988    7.20503474779571
C         -10.61519382136213  -18.25164831333669    6.24368983794634
C         -11.79359665134653  -20.21625769599610    7.13549761815979
S         -13.30215609063834  -19.81215718796284    6.36710327456977
C         -13.93096982986987  -21.40851573779050    6.65685210314051
C         -12.99991964212804  -22.18908553682580    7.30472893307289
C         -11.80692422692535  -21.51820676814281    7.57775290687852
C         -15.23881885804696  -21.78082527799891    6.24801621507304
C         -16.23014882171686  -20.99097377150552    5.70217530539980
C         -17.40631749957604  -21.68636505209729    5.43254841699237
C         -17.33864630328143  -23.02691137355756    5.75608985328450
S         -15.77591138326498  -23.42555715131986    6.41866265926437
C         -18.33271746490360  -24.02419325339865    5.61048432004458
S         -19.93710891950817  -23.64358865944260    5.07707776946409
C         -20.42116230929388  -25.31948243336688    5.17952076407652
C         -19.35901154752389  -26.10426111696065    5.60735825375594
C         -18.20191027719139  -25.38401033729207    5.85259624904644
C         -21.75168875217090  -25.68303877203217    4.89786546178708
C         -22.21645502463029  -26.96539198864342    4.82482093669250
C         -23.54730056445536  -27.32989855040354    4.54968892055264
C         -24.71444200201480  -26.61858602466279    4.67327979713103
C         -25.90186899214515  -27.08489478503896    3.91793814750089
O         -26.02582270506461  -28.12820644997779    3.31819665245375
C         -26.88815946894660  -25.98185485291793    4.01498427246438
C         -28.11502978946423  -25.86499859724933    3.39851548312201
C         -28.85485721569079  -24.70156044539007    3.62054292720482
C         -28.34164842272790  -23.68501982551584    4.44808877247776
C         -27.10132199365005  -23.81981088116783    5.07625686249079
C         -26.37754701653615  -24.97930357289849    4.86131243607415
C         -25.08321891737678  -25.42291730885832    5.39024601977589
C         -24.50379233222333  -24.91441039393635    6.52622903610620
C         -23.39233138482371  -25.48769292724927    7.17395976157316
N         -22.51122833537884  -25.92911505371235    7.76238186976492
C         -24.99695664679583  -23.79908067926076    7.23331590563731
N         -25.34426697194680  -22.88406369986765    7.83320943988122
C         -29.09438520151768  -22.50115536059372    4.64517431989745
N         -29.69298319896101  -21.53840306174892    4.80563291944686
C         -30.11975492678907  -24.54061183919539    3.00625920832157
N         -31.14027451406076  -24.42844211407106    2.49874417436194
H          11.33066472217317   -9.29343065869547    7.05476698257061
H           8.80586080431469  -12.01813847269910   10.38375320312528
H           6.17303778836038   -9.51399482337919    5.24943141717652
H           2.14866604108476  -12.36548355173452    7.45502441012646
H           4.65871196259969  -11.96874223424731    7.95079632597079
H           1.07775428219797   -9.65777726326128    3.59306946172783
H          -1.41234525854993  -10.18719538773938    3.11085639765724
H          -5.80487062418736  -12.50444903180147    3.63644514630836
H          -3.68685566177768  -11.12257672871857    3.13426508506635
H          -5.28033444670841  -14.90893929457282    6.71611179841255
H          -7.26476234527423  -14.18426136298221    4.49586965298216
H          -6.67412544454629  -16.36792707516150    7.69408406751314
H          -7.83285645721940  -19.98953886120587   11.09098321781675
H          -6.95355090533856  -18.02470366544211    9.61053698954530
H         -11.35495492925685  -18.18169062316905    5.46114759161542
H         -13.18865428702988  -23.21420826912386    7.57024168135394
H         -10.96743420405616  -21.98879823596379    8.05462298749086
H         -16.09187318254021  -19.94070889737996    5.51639313313454
H         -18.28961801074709  -21.24044181227070    5.01063854837159
H         -19.44118169335890  -27.16530949599101    5.75374919231808
H         -17.27915349909696  -25.81561818924809    6.19819730362836
H         -22.42948250439652  -24.86674206113529    4.68135575092344
H         -21.50731559190146  -27.77715533723398    4.90032719002795
H         -23.68758085940560  -28.31357858451970    4.10984493593367
H         -28.49259373095823  -26.65034340484686    2.76152448004896
H         -26.73745885369717  -23.01870508133463    5.70002163408479
