121
 SCF done       -210.926667985455          0.000946577820
C          -1.04695209037354   -0.12967569563416   -2.25081076481438
C          -0.57762968823958    1.16787693295484   -2.37700405065445
C          -0.65008140270386    1.78170615804193   -3.62842416663172
C          -0.17968798923681    3.11006820998735   -3.77920258160421
N           0.20016711181056    4.18394395411871   -3.89224073862613
C          -1.18482893641237    1.10765853157859   -4.74361795702739
C          -1.24258404891577    1.75649694403079   -6.00049579810628
N          -1.29754429788124    2.26400567122631   -7.02535213185603
C          -1.66163837383306   -0.19695665923019   -4.60991763389135
C          -1.58495436142628   -0.79255862334664   -3.36882038916779
C          -2.03103647306971   -2.15395007520078   -2.98458846219231
O          -2.55299395725697   -2.95651942375054   -3.72346662552755
C          -1.77275276797992   -2.25145510762974   -1.52608454396476
C          -1.10764347259820   -1.02946374089695   -1.10149198800758
C          -0.54762168299133   -0.79010655716775    0.12400946420802
C           0.12252603629056    0.40433649258544    0.46790176310279
N           0.67157841947659    1.35486796178355    0.80118106643776
C          -0.52524828811948   -1.70613765204926    1.19928795799257
N          -0.44805510447796   -2.40067390327269    2.10989303415733
C          -2.25808911636489   -3.19947265189991   -0.67504892036207
C          -2.82261675285920   -4.48365110833955   -0.96535073930471
C          -3.73011350060290   -5.02311263646442   -0.03072960757171
C          -4.27712827336821   -6.26107217248016   -0.24847874702497
C          -3.93700025378789   -6.98671494860953   -1.40807577445685
C          -3.00973863870140   -6.48616880092714   -2.31233188827876
C          -2.45465426225921   -5.24502562974416   -2.08565022879039
C          -4.70349594501780   -8.21153733377570   -1.42639701873180
C          -5.52231551902400   -8.24268608677411   -0.28474956586865
C          -5.26304827075692   -7.03777177510568    0.59383292087524
C          -4.61159950432365   -7.56488402575971    1.89600812153061
C          -4.08033546672293   -6.50490082057066    2.85145828362179
C          -6.54232222910426   -6.23850567749353    0.88139629470988
C          -7.26673811687943   -5.82360811716716   -0.39425875234188
C          -6.37286476364027   -9.29850465561332   -0.06117192967089
C          -6.41565791944215  -10.34991258128673   -0.98668256022680
C          -5.58933713339426  -10.31038553557289   -2.11558245659113
C          -4.73707187380900   -9.25070143720696   -2.34582716284122
C          -7.29350828934245  -11.47919488410502   -0.77094362201290
S          -7.07316103590893  -12.95869657224730   -1.67346569032934
C          -8.37965835681308  -13.74660992822773   -0.86454178866378
C          -8.94899258802963  -12.88414840888382    0.05506623364124
C          -8.33603819576066  -11.60990001291593    0.09951133718007
N          -9.97702966226604  -13.21836141369752    0.97975654849177
O         -10.24755227973951  -14.39041692654956    1.15160011574320
O         -10.50692067108544  -12.29599016726666    1.56831124701339
C          -8.71620939322967  -15.10455663644822   -1.24851263094183
C          -7.67066957640898  -16.00558853034480   -1.48332044316800
C          -7.96204042851440  -17.29040269813681   -1.87328584663308
C          -9.30067023653987  -17.69843208353598   -2.01119319077854
C         -10.33918386384702  -16.80142480079058   -1.80482334953337
C         -10.04181386708009  -15.50547538952205   -1.43373074999481
C          -9.32004364894811  -19.10524228761394   -2.34935561580744
C          -7.99123340262305  -19.56336027775793   -2.41076910696858
C          -7.01839512847829  -18.43058257863904   -2.17221938733088
C          -6.25055452318581  -18.21426324908111   -3.49978018887948
C          -5.40572261613507  -16.95030910869401   -3.58133644506472
C          -6.06354652954989  -18.71414439733813   -1.00310396186483
C          -6.80691080118075  -19.02878892982181    0.29021882228425
C          -7.71851232227240  -20.86906493681694   -2.72444009771912
C          -8.77978702379590  -21.75261869350869   -2.98448811198710
C         -10.10042704157448  -21.29603372249133   -2.86619732154703
C         -10.37715576521554  -19.97823510381899   -2.56763620937805
C          -8.53705938580057  -23.12128524203656   -3.34550681993327
C          -7.46511664481596  -23.64096673984087   -3.99594555752812
C          -7.19995212455624  -25.10315760914659   -3.93370229198739
O          -7.95260511851089  -25.96841143031653   -3.55772785338133
C          -5.79258273551278  -25.25754462851979   -4.37615352983187
C          -5.01353120529662  -26.39520284640868   -4.38277024453994
C          -3.69058196069233  -26.28505052660892   -4.81437685757196
C          -3.18084986222930  -25.03777036110241   -5.22441300251079
C          -3.98104108647620  -23.89406420223680   -5.22435984087810
C          -5.29422567680085  -24.00971339267244   -4.80089898800876
C          -6.36930441193857  -23.02075964687655   -4.71790950819018
C          -6.40884378840770  -21.84268958440230   -5.41190875081032
C          -7.56408847116597  -21.04083458735834   -5.54301695098963
N          -8.47379948901211  -20.37267148052983   -5.74709627227901
C          -5.31828651085237  -21.31758841578342   -6.13648542493426
N          -4.44521821269495  -20.83474715691188   -6.70332407316397
C          -1.82944932836909  -24.93959037515530   -5.63990094789644
N          -0.73815597822375  -24.84690558812491   -5.97250755644076
C          -2.85464213641845  -27.42770030460350   -4.83242642923745
N          -2.19253281897702  -28.36179511132416   -4.84104442427482
H          -0.16718187898430    1.71743373394957   -1.54494514146550
H          -2.07904222237456   -0.72665462319162   -5.45284146079863
H          -2.25347898552434   -2.94931544869878    0.38034774101548
H          -4.00858808918545   -4.43126866691989    0.82824312528997
H          -2.72707136664192   -7.05765685439729   -3.18286278845168
H          -1.71155335080044   -4.86507914575034   -2.76569782724686
H          -3.78786697651192   -8.22644733096670    1.61469908301506
H          -5.35755785701056   -8.17070553097240    2.41486591391176
H          -3.25468128321234   -5.95618232257562    2.40703066285967
H          -3.71253134523634   -6.98976340552544    3.75290368452292
H          -4.85846817355697   -5.80446095237279    3.14223206056140
H          -6.28496475487686   -5.34527548905913    1.45152246936415
H          -7.20772149308373   -6.84792497258945    1.49596591654743
H          -6.62452328924157   -5.20599514826651   -1.01863075783158
H          -8.15882760437179   -5.25261064359421   -0.14843410680501
H          -7.56579747889494   -6.69654609543341   -0.97028659598913
H          -6.99485567790911   -9.32926644155964    0.81923765197975
H          -5.62990717188336  -11.12803854230744   -2.82102021841112
H          -4.11001943416550   -9.23367980322262   -3.22375732483890
H          -8.68386280964142  -10.84433571387941    0.76815022845229
H          -6.65314701921716  -15.68369053217661   -1.32072415301291
H         -11.36597949813106  -17.10773970668522   -1.92924831006995
H         -10.84116446240270  -14.79613026786969   -1.28931391759470
H          -6.98129952686774  -18.20083107454987   -4.31282095672182
H          -5.60418439806402  -19.08208805778003   -3.65396291032268
H          -6.03059819383738  -16.06196117404582   -3.55142051971365
H          -4.86099301433204  -16.94838634411367   -4.52266769341160
H          -4.68053309647245  -16.90290775492122   -2.77316071362194
H          -5.42467084399977  -17.84452944842121   -0.84542740454531
H          -5.42080721014514  -19.55642065055072   -1.26886569141479
H          -7.44022360148153  -18.19443783940537    0.58299305228470
H          -6.09790901872170  -19.22017378592885    1.09218230751078
H          -7.43577087860529  -19.90846781377269    0.17047504348846
H          -6.70134998545629  -21.23380066215377   -2.73736309619253
H         -10.90779434157331  -21.98764091367997   -3.05518616075927
H         -11.39788641758539  -19.63429956191518   -2.50570774150939
H          -9.27261678290921  -23.84887656951023   -3.01634609309520
H          -5.41560134025345  -27.34388756837849   -4.06112750924780
H          -3.55829602472645  -22.95331333202320   -5.54063079167831
