115
 SCF done       -218.257001941821          0.000883225643
C          -5.49978941096204   -4.26505798022291   -9.06999057678947
C          -4.82302967775655   -3.77006042422430  -10.17241322578870
C          -5.53677123390723   -3.02288477766347  -11.11201190294833
C          -4.86380765307756   -2.51481115802209  -12.25044959274319
N          -4.31358054308097   -2.10984317503566  -13.16923289714219
C          -6.91187846455358   -2.76726604929875  -10.95188060149555
C          -7.60736556189656   -2.00249848998953  -11.91830526515492
N          -8.18903052774489   -1.38542518822781  -12.68816236731626
C          -7.58999056936009   -3.27093811690052   -9.84073203760110
C          -6.87466809911342   -4.01178228280902   -8.92507680924368
C          -7.37406481838842   -4.65911923041497   -7.68868000272937
O          -8.51791261183739   -4.59136234089770   -7.28747131780414
C          -6.21298326211688   -5.35595840111483   -7.10776369648813
C          -5.05195839155961   -5.06626631258053   -7.92875612901565
C          -3.74737482630326   -5.42606884625135   -7.70337048730401
C          -2.67690265066550   -5.09972595890913   -8.56378092437698
N          -1.76152987023942   -4.87309232145911   -9.21826791276901
C          -3.25110849850260   -6.14335677665156   -6.59349334077003
N          -2.74663462050630   -6.70990039738016   -5.73093636422136
C          -6.17567995610893   -6.19824705378414   -6.01919170317172
C          -7.17245560783854   -6.63331432599799   -5.13734906841331
S          -6.68712863346432   -7.81978753899767   -3.93313518936283
C          -8.29196495781626   -7.91525236806655   -3.30207708733396
C          -9.14589506536538   -7.05166827255533   -3.98710178184303
C          -8.52784175566897   -6.34321151873938   -4.99778746059534
C          -8.63105426654977   -8.79742028741425   -2.24960736013021
C          -9.88543980267806   -9.04137317545846   -1.71508500962552
C          -9.88302279577130  -10.00659353631380   -0.71700548018644
C          -8.62667969504927  -10.52410803103236   -0.45254499747726
S          -7.42627767069501   -9.78852454668629   -1.47059145950994
C          -8.28090083856177  -11.52639028074149    0.48489209320964
S          -9.50379502136350  -12.37307924585467    1.38978052665180
C          -8.30488790121730  -13.34454360664198    2.19794494876033
C          -7.03316030827246  -12.99942967164779    1.77083601858762
C          -7.02081160933006  -11.99151701244359    0.81434025251999
C          -8.72715678274774  -14.32793158642622    3.12521371692598
C          -7.90195838374404  -15.11158936765698    3.86593544690182
C          -8.38717865962929  -16.09882911626182    4.75298017249763
S          -7.30592811453519  -17.04004189187716    5.75036868674313
C          -8.59168730525600  -17.96401733123914    6.47711870994368
C          -8.32104170606077  -18.98380148037205    7.52506862252655
C          -8.12861534604988  -18.32962281381879    8.89575831720161
C          -9.78415266472133  -17.54837219624416    5.97160770442128
C          -9.69559278929206  -16.50103683827836    4.99200504800122
N         -10.87140168114780  -16.11002568322865    4.46735574818844
C         -11.87082355948744  -16.76489722664523    4.95892447438243
S         -11.44558205080959  -17.99483575560370    6.19675274580562
C         -13.23070927749094  -16.60103731157992    4.59110747096024
C         -13.61618481555581  -15.74067985243461    3.61821751433309
C         -14.95156074556336  -15.54501849351307    3.18272389869964
S         -15.27116364558805  -14.45177794285565    1.86396497875916
C         -16.97567852268991  -14.77965645273035    1.94074179089996
C         -17.25632157600293  -15.68523512653875    2.94700349555872
C         -16.12830473435762  -16.11281953466376    3.63804990542859
C         -17.88763073898338  -14.16656472248982    1.04443906030775
C         -17.61361547033389  -13.28828466683469    0.01405542252907
C         -18.74658284007253  -12.88550341840091   -0.68610400720443
C         -19.91595687533708  -13.44369102640666   -0.20757338141617
S         -19.59310268795592  -14.49331674767772    1.14587569988297
C         -21.23694623267256  -13.25956214682091   -0.68213886772896
S         -21.57897639140033  -12.25090415845956   -2.04973258579730
C         -23.28815635682304  -12.59048092307080   -1.93473049197887
C         -23.54095055718156  -13.44583085069678   -0.87120716092332
C         -22.40151756714312  -13.81851693467590   -0.17702077083356
C         -24.17159534904267  -12.04588982889343   -2.88731768013060
C         -25.52932055232884  -12.18854339186445   -2.86973066809470
C         -26.41973285321746  -11.64021262069650   -3.81204226837143
C         -26.21705396932137  -11.17987500065193   -5.08833184114216
C         -27.24114670921213  -10.27688405499680   -5.66998661190197
O         -28.33545355073257  -10.02619778042798   -5.22029160259546
C         -26.62034114915803   -9.71287373238584   -6.89209601123852
C         -27.10875262973230   -8.73972702512270   -7.73674010260531
C         -26.31336069928473   -8.34424168390538   -8.81422280136976
C         -25.04818876776976   -8.92930694583882   -9.01061261144736
C         -24.56899472618897   -9.92343364117518   -8.15423249574459
C         -25.36607075959213  -10.31940019107721   -7.09475773602967
C         -25.16157117003840  -11.33760381698962   -6.05855748032718
C         -24.27519699509903  -12.37970604710450   -6.17092007331423
C         -24.24452492811296  -13.48672393026673   -5.30103725444796
N         -24.18906862706837  -14.41837535595045   -4.63312876574310
C         -23.33516257353497  -12.50882136427918   -7.21365613507364
N         -22.54022470653713  -12.65601111141164   -8.02833396400842
C         -24.24293039155258   -8.49930482543021  -10.09413350911159
N         -23.58229296821586   -8.15447967159217  -10.96324170530548
C         -26.77742609991589   -7.34806026100311   -9.70637675438624
N         -27.16984504641817   -6.53869200013214  -10.41519181054704
H          -3.77135895929261   -3.94330903403005  -10.33356899623562
H          -8.64487010028095   -3.08875378204128   -9.70185451500835
H          -5.20874353547686   -6.63878095223949   -5.80730011982764
H         -10.18783045255389   -6.95346269955557   -3.74312856290970
H          -9.02881588653710   -5.63422539133463   -5.63081954188996
H         -10.77186757680180   -8.53564332833275   -2.05150192529025
H         -10.76041850312532  -10.33453378796117   -0.18845798552366
H          -6.14386619224996  -13.47637800597715    2.14007695380901
H          -6.12798097211761  -11.59614703776219    0.36212637618014
H          -9.79352284269849  -14.46019596953786    3.24242694568105
H          -6.82858038915592  -15.00297376477848    3.80479026288351
H          -7.42224747297415  -19.54673662275974    7.26461659772244
H          -9.16692173867976  -19.67436791758024    7.56381394847006
H          -7.28601164229058  -17.64233174423604    8.87066346816483
H          -7.93678552445120  -19.08973062019390    9.64818103538993
H          -9.02080038964801  -17.77609876154988    9.17947140873740
H         -13.94691074741809  -17.21383856831963    5.11745186928488
H         -12.85058865725021  -15.16254052651235    3.11965029069222
H         -18.25778638453096  -16.01785741650769    3.15667069851801
H         -16.16280094144667  -16.81635150114198    4.44947820999381
H         -16.61404065880291  -12.96221390170459   -0.21210643628108
H         -18.73304913347938  -12.20841085520648   -1.52176942588371
H         -24.52680034464338  -13.79345386475632   -0.62365876645290
H         -22.39615532072393  -14.47959984529751    0.67163001146359
H         -23.71646411932582  -11.43486540967264   -3.65643541902654
H         -25.98371651538420  -12.69499524701615   -2.03034112642845
H         -27.43804251651506  -11.49074074360704   -3.46276325193954
H         -28.07811372876735   -8.29553246500745   -7.56913218977883
H         -23.59313827486892  -10.34648565602978   -8.33317308628510
