127
 SCF done       -226.124971191207          0.000786930916
C           1.54361866791180   -5.13124585141882   -5.97905653213925
C           2.81678442473088   -4.72225902197038   -6.34179869378591
C           3.91129266920418   -5.37266911485115   -5.77008290371869
C           5.22292247229612   -4.96630896757781   -6.12107557916530
N           6.27936234513738   -4.63134089190843   -6.40743340375521
C           3.73732065430113   -6.42266792615041   -4.84744982488755
C           4.86718754306113   -7.06685949882094   -4.28842542902878
N           5.76728765332539   -7.60150420721627   -3.82454866688573
C           2.45294595008375   -6.82623773509487   -4.48042264293742
C           1.37938959657500   -6.17453476268640   -5.04965492651505
C          -0.06387712758313   -6.41474812138459   -4.80699313337220
O          -0.52087618262444   -7.24689383439413   -4.05712812300105
C          -0.76987648212386   -5.38565487040661   -5.61032308779175
C           0.22333678987412   -4.66209939787977   -6.39096510417970
C          -0.02414113889840   -3.76732383603291   -7.39523594150624
C           0.98351779856014   -3.11398686702155   -8.13850711908663
N           1.76106535656432   -2.55300874757424   -8.76831494266428
C          -1.30896779602464   -3.40263570305785   -7.85697786447754
N          -2.31453685292287   -3.07487592570005   -8.30256991054202
C          -2.07069584372501   -5.00195410383548   -5.47989528188443
C          -3.14459386166644   -5.65085377181371   -4.78620651974617
C          -3.24653568573126   -7.04726676613698   -4.66684455310004
C          -4.31412612923316   -7.58728022942215   -3.99191313464878
C          -5.26672056939742   -6.74979097888867   -3.38140542402680
C          -5.19655216009750   -5.36868913084574   -3.52345228453463
C          -4.15653837372891   -4.83380067336628   -4.24871518984106
C          -6.20540032636790   -7.57051279622543   -2.65230394246766
C          -5.83921988152549   -8.91814603971354   -2.81532714920468
C          -4.64991294299009   -9.04002268675805   -3.74372302088181
C          -5.15443246721085   -9.73886647980269   -5.03030271443071
C          -4.18029130540519   -9.75447597796469   -6.20061403830117
C          -3.48476346054845   -9.80757483062056   -3.10211658785218
C          -3.01443571364273   -9.17032491781499   -1.80000154890703
C          -6.56533477731555   -9.91245529850798   -2.20675568286675
C          -7.67796442490736   -9.57245219031112   -1.42283120728363
C          -8.01946655088862   -8.22424828523467   -1.25199372637808
C          -7.29300542182639   -7.22385069231120   -1.86341061082022
C          -8.45630704866677  -10.61344469333426   -0.79280101928524
S          -7.77318489756504  -12.17966259888771   -0.49775928398284
C          -9.23533782471689  -12.78039318471467    0.23880616437683
C         -10.19865452035692  -11.79275726249104    0.24171002634957
C          -9.76514738736561  -10.57081346950543   -0.34585495206517
C         -10.64266734282296   -9.47969665118919   -0.50191285252614
N         -11.39475191673976   -8.62414725174373   -0.63176888856411
C         -11.59814174703686  -11.87044372492184    0.76565406058228
F         -11.89680700312748  -13.00746467101935    1.41252233237097
F         -11.85519948536142  -10.88058725357620    1.63771400322335
F         -12.50611306531174  -11.76069325280804   -0.22022092044295
C          -9.31360538826857  -14.11691613459610    0.73271196012033
C          -8.30541541181796  -15.00870582611502    0.67731388434093
C          -8.35385989831137  -16.36176857721540    1.17759865077169
C          -9.45155193037442  -16.85748170770439    1.89888932994045
C          -9.43487872140440  -18.15277609519027    2.35119673567116
C          -8.33422436637835  -18.99168834596233    2.09841846766143
C          -7.24123904282279  -18.51389819833219    1.38776568153611
C          -7.26079564421907  -17.20893674573178    0.93973283864033
C          -8.59467372576287  -20.28328423241678    2.69423758700582
C          -9.85908065015485  -20.24067309973573    3.31274833019901
C         -10.49400863867478  -18.88207536502181    3.14204542712364
C         -10.74721112945712  -18.20590475443419    4.50301780277106
C          -9.48528753465349  -18.08243089540536    5.34864359704090
C         -11.81661644374432  -18.97709039468604    2.35613690054760
C         -11.63635247999379  -19.53862069950622    0.95094272082070
C         -10.35553014104626  -21.33979252382138    3.96328526856297
C          -9.58617337673809  -22.51507754194190    4.02052118266797
C          -8.31256275049042  -22.53106354072970    3.43225492513711
C          -7.82152853213664  -21.43533895817915    2.75432459675923
C         -10.04868245928453  -23.67885614616863    4.72296327497523
C         -11.32343283985644  -24.08406256058932    4.95604913940017
C         -11.60054777340308  -25.06035906210264    6.04354008303838
O         -10.80012365800755  -25.74115175296921    6.63752167689738
C         -13.06235535874426  -24.96942848380716    6.27849073557164
C         -13.81448757418593  -25.57350926041319    7.26361917992153
C         -15.18436708054111  -25.30750835804315    7.30258072477380
C         -15.76528625691524  -24.44086307188735    6.35642374903552
C         -14.99693388693665  -23.84241282394621    5.35638403532962
C         -13.63979072858958  -24.11368821264437    5.31921508278007
C         -12.59582497450145  -23.67387682190884    4.39390956371215
C         -12.81000251123568  -23.20499766546570    3.12670333221160
C         -11.78454736817166  -23.06067827479097    2.16837726293416
N         -11.00398414083178  -22.97383595713975    1.33221841038054
C         -14.08146396460665  -22.88237270724710    2.60810533891516
N         -15.09295663526110  -22.57613752315639    2.16149084496277
C         -17.15442387319206  -24.16798310372617    6.42344562627207
N         -18.27464447786440  -23.93800965515942    6.47266539721749
C         -15.99226526262667  -25.90457905259443    8.30041100614963
N         -16.63008987538524  -26.39429682186400    9.11564217609228
H           2.98825986533833   -3.91885067015003   -7.04034259403433
H           2.30227053531965   -7.62513225496394   -3.77022894236439
H          -2.33900530796179   -4.04297366321313   -5.90979444946077
H          -2.49946177990665   -7.67796510772345   -5.11596620437415
H          -5.94348336249001   -4.72984933079703   -3.07797561546947
H          -4.08472957578664   -3.76340326026591   -4.37590049066649
H          -6.07331205896888   -9.23869315028557   -5.34779251123884
H          -5.41309697528985  -10.76669303416356   -4.76666316993532
H          -3.99567092474485   -8.74811305117098   -6.56662735711786
H          -4.60894911287984  -10.33470266199853   -7.01484355796612
H          -3.23365090021449  -10.21096578097056   -5.92473060296922
H          -2.64676693822622   -9.83487562123757   -3.79829448027240
H          -3.80450108448660  -10.83490767535456   -2.91462738985258
H          -2.61299772113400   -8.17747500645879   -1.98704017409800
H          -2.22926933500067   -9.77521471275479   -1.35326433751080
H          -3.83342206427491   -9.08745141099559   -1.08820269238080
H          -6.30151358953998  -10.95311815642857   -2.33021268957574
H          -8.85289253756910   -7.96228829983594   -0.62108239195350
H          -7.56875897210585   -6.19053426037336   -1.72216833502406
H         -10.25644824818679  -14.40105601079569    1.16896242344618
H          -7.37067483785096  -14.71022100375413    0.21665456425268
H         -10.30064618869996  -16.22555174727449    2.10583243196163
H          -6.39118224587031  -19.14878575723413    1.18929987727279
H          -6.41655224047515  -16.82401704801993    0.38597117485730
H         -11.49542270224130  -18.78533575927940    5.04807694370106
H         -11.16222153150345  -17.21191645660480    4.32611852211164
H          -9.06306047128516  -19.06256822358459    5.56043889353568
H          -9.71625262810018  -17.59668303145622    6.29360807392577
H          -8.73316674177408  -17.48974437526224    4.83265976362844
H         -12.25790309651109  -17.98037194925682    2.29293799827442
H         -12.51006258123150  -19.60958810088776    2.91542036476857
H         -11.01336352532925  -18.87997169865067    0.35024376627799
H         -12.60398382333718  -19.63448396273012    0.46423233234164
H         -11.16912565231089  -20.52065636109758    0.97815619124051
H         -11.30861501521159  -21.29632424629440    4.47089384474948
H          -7.72701323066139  -23.43659867401291    3.48890742553662
H          -6.84913714942862  -21.47192906203808    2.28781882553411
H          -9.28380144706530  -24.28879886242628    5.19461450002188
H         -13.35621649014430  -26.23263711417646    7.98520346508127
H         -15.47160601262226  -23.18034734885468    4.64907185223609
