134
 SCF done       -239.480719184347          0.000996720757
C           9.29875376964256  -19.19162454812676   14.33703425876225
C          10.62422958060553  -19.33767317668232   14.71150746549197
C          11.11203744500584  -20.62491008466234   14.94735396301987
C          12.46624467704711  -20.79539355524413   15.32673258466562
N          13.56132194940010  -20.92676723908421   15.63429401055811
C          10.28550179116073  -21.75656909281954   14.81334004080385
C          10.80673911132191  -23.04862314884106   15.06023921027725
N          11.20574948071823  -24.10493774323001   15.25246100264261
C           8.95079173665037  -21.60416258125832   14.43398347020453
C           8.48390517777266  -20.32877367374121   14.20155026228823
C           7.12193698524840  -19.91970007353272   13.78220987684830
O           6.19705485675983  -20.68472839359995   13.59858180493115
C           7.17111959793546  -18.45398097346431   13.64692161558554
C           8.49806667954777  -18.00594767494337   14.02395935073305
C           8.96048765480836  -16.71700658203855   14.11713493569931
C          10.27454382765261  -16.37357850832189   14.50108813303677
N          11.32537844070093  -16.02170022138142   14.80059479666840
C           8.22573515223399  -15.53709701458182   13.87232057138545
N           7.71647646514661  -14.51998706694516   13.71030767920231
C           6.18570314885819  -17.60183974558115   13.19912121740027
C           4.86406598098627  -17.82550684222883   12.79683822760123
S           3.97765231033952  -16.41725894845728   12.22270056763389
C           2.56426924084390  -17.36684336108796   11.92288989361300
C           2.78018072508524  -18.69979939035703   12.26365036828014
C           4.04851017627110  -18.95397044501749   12.74610409507914
C           1.39215553677560  -16.79351514503012   11.38331448450943
C           1.17511449909960  -15.47416528634224   11.02772650079024
C          -0.08527083937365  -15.24464836299197   10.49246946637546
C          -0.87085469043830  -16.38199271153828   10.42402384925630
S          -0.01989261755286  -17.76406330442790   11.04856502268996
C          -2.18073472907620  -16.50165102144014    9.90168404620908
S          -2.99157383735765  -15.13555060438812    9.18956070896070
C          -4.37856470482537  -16.10562738460024    8.77989969401691
C          -4.19868847958278  -17.40972102593051    9.20470050774710
C          -2.97535203305688  -17.63005755208603    9.82850925116547
C          -5.45045628133038  -15.50831848987025    8.06019348756053
C          -6.51510767458855  -16.18053347876289    7.56831490584976
C          -7.56123704579246  -15.63608057707742    6.74536868219682
C          -8.41809493331560  -16.50672668185679    6.10611193521112
C          -9.37846132706814  -16.02720261447460    5.19504577480273
C         -10.27936490347458  -16.69704264279914    4.37984504534872
C         -10.49217547955465  -18.17316175402837    4.32638493357039
C         -11.95791804815860  -18.54870145037083    4.61201758925376
N         -12.01297638183167  -19.89945038573652    5.13697575250685
C          -9.99576905648445  -18.75195393705036    2.98911328405404
N          -9.98857531817333  -20.20704777475999    3.02631828629803
C         -10.93827476349408  -15.69283319918196    3.57740234393929
C         -11.81624955964645  -15.78573623436699    2.56110682450058
C         -12.25001313949301  -14.58094980162404    1.79250828277508
C         -11.82549788831990  -13.27747836043529    2.38488747657661
C         -10.94170349166636  -13.19816462728095    3.39596377732857
C         -10.42948958128282  -14.37502570942349    3.99309619409343
C          -9.47775611721620  -14.59165474400090    4.96624223574151
C          -8.63413106779775  -13.71450335780555    5.68879026580991
C          -7.70763654438346  -14.22211456062004    6.53767284826690
C         -13.71140113374000  -14.66284476289113    1.44766508676324
C         -14.67330584117331  -13.91897646107407    1.99724492755976
C         -16.04704309436415  -13.96423969541349    1.59048381903953
S         -16.57723516669127  -14.96290528303939    0.26795139759035
C         -18.20359664755340  -14.35377148023472    0.39851004525592
C         -18.30427472764607  -13.44469845833492    1.42774204996164
C         -17.09469947462959  -13.22798672772305    2.09319332095470
C         -19.20206148492493  -14.77215461240185   -0.52022813087982
C         -19.07279628050825  -15.68824941002921   -1.54512740324306
C         -20.22801313743605  -15.83433101323880   -2.30635326201980
C         -21.27016477231451  -15.03316114990928   -1.88299378000018
S         -20.80016678374391  -14.08738152572435   -0.49467840310088
C         -22.55729322344405  -14.90770867110673   -2.45835832863524
S         -22.98866374868201  -15.79492389838535   -3.88372009914391
C         -24.57647380031646  -15.06444510000587   -3.91849006235546
C         -24.72492872651361  -14.18213256531226   -2.85510239102702
C         -23.60402719186522  -14.09559668969055   -2.04572220771309
C         -25.46294255729579  -15.37857075864698   -4.96452121182103
C         -26.74047166557670  -14.90596991040171   -5.08369816377837
C         -27.52663502719166  -15.20384208275348   -6.20508724153752
C         -28.78539126429904  -14.76145660182683   -6.52628477356744
C         -29.52605909609871  -15.47609725992601   -7.59089011312979
O         -29.08720518334775  -16.29848040656562   -8.36297019637859
C         -30.92697881792130  -15.00603446720375   -7.48003924387499
C         -32.03505572907824  -15.43322037160259   -8.17864169331387
C         -33.27155677816345  -14.86681669043258   -7.86237781749729
C         -33.36236897559176  -13.89420016920400   -6.84883224766270
C         -32.22964373025788  -13.46124116139078   -6.15560246832869
C         -31.00422050287476  -14.01671263634061   -6.48082576799899
C         -29.65401492507570  -13.75589296481006   -5.96658606921272
C         -29.30969798966938  -12.63216689807889   -5.25694850463116
C         -27.99602867403913  -12.21016124255460   -4.96829330432704
N         -26.96372686349043  -11.77468738216025   -4.71587557055957
C         -30.24014583476259  -11.67730955723727   -4.79476914058793
N         -30.94367356130776  -10.86917940167969   -4.38238726024125
C         -34.62757485462113  -13.34659096844095   -6.52274519043958
N         -35.64784807514340  -12.90409299040489   -6.25043750358682
C         -34.43480799486708  -15.27700820787774   -8.55607015333959
N         -35.36341832288827  -15.62475617236230   -9.12931406256004
H          11.29123866838789  -18.49836333426259   14.82404214497175
H           8.30157563905956  -22.45951424300909   14.32379314229524
H           6.47418755233094  -16.56016220932467   13.12493256412638
H           2.01394581357637  -19.44659846986703   12.15046745493327
H           4.39474457773131  -19.92311570365908   13.05448345462187
H           1.92615426814748  -14.71498823910442   11.15720805933489
H          -0.43481380309837  -14.28552124057350   10.15403878937247
H          -4.93597699832495  -18.17873093487553    9.06415496843384
H          -2.65667866147397  -18.58121266660886   10.21811631141317
H          -5.34166155584912  -14.44901683197339    7.87552619973848
H          -6.57795489949918  -17.24650962895117    7.74447466766214
H          -8.32528846969489  -17.57034597499115    6.27493752554252
H          -9.90220701015324  -18.63424443721996    5.12475518906850
H         -12.55843328343794  -18.40960480558882    3.69793597820737
H         -12.35480290594789  -17.87267930198607    5.37716847896197
H         -11.61756749282122  -20.53271310644899    4.44718117074963
H         -12.97330920982560  -20.17359853767746    5.31332855361837
H          -9.00156328885823  -18.32108949742053    2.77685776071639
H         -10.66555128126905  -18.44796942664269    2.18046959286453
H          -9.33085833600713  -20.53098708990305    3.72888532070844
H          -9.69176718192746  -20.58035842239692    2.13078686423763
H         -12.21311620635286  -16.73218183091291    2.22400759077093
H         -11.71742150506120  -14.66412544294745    0.82533028534281
H         -12.21945222493791  -12.39144108332741    1.91085581947189
H         -10.61489788345211  -12.23834852184995    3.76903407722165
H          -8.72918299650188  -12.64797179479761    5.54569133782094
H          -7.06406947277574  -13.55258764297207    7.08614011735557
H         -13.97287088605541  -15.39008821273733    0.68911947823792
H         -14.44037991313319  -13.20668156979472    2.77741043347376
H         -19.22809973704941  -12.95200698344905    1.67481053959359
H         -16.98183397920907  -12.54517363601565    2.91640088524687
H         -18.15711400647940  -16.22230213465091   -1.72662394513374
H         -20.31736749968001  -16.49578667070656   -3.14988722341672
H         -25.61562870824407  -13.60103013524188   -2.70149804782593
H         -23.52670975655792  -13.45944285628778   -1.18168679351818
H         -25.07600385417303  -16.02112934832570   -5.74574688575514
H         -27.15065944185665  -14.29558150877592   -4.29613703346743
H         -27.12471704957157  -15.93119642304784   -6.90440607337724
H         -31.94871602821767  -16.18600875930225   -8.94740154773968
H         -32.34122480170438  -12.71748267341951   -5.38280894725856
