130
 SCF done       -221.866317997764          0.000719554428
C          -3.11321049449527    0.12164831179375   -4.19607927559319
C          -2.54295767635548    1.30145511021750   -4.64717586774213
C          -1.26358521006927    1.63535886368943   -4.19997387567018
C          -0.66156941420928    2.83678765439660   -4.64999340715342
N          -0.18073891105208    3.80806645434262   -5.01847987538348
C          -0.55783951958282    0.80101730166081   -3.31139722630006
C           0.73538290708565    1.17043094479042   -2.86999794567216
N           1.78172740431604    1.45189483210697   -2.49990175644277
C          -1.13246970756994   -0.39026309206934   -2.86700884173524
C          -2.39693748757046   -0.70788193731492   -3.31529240398553
C          -3.20086763205428   -1.90897454655436   -2.98503952609740
O          -2.83281896801814   -2.82202004489482   -2.28187541476850
C          -4.46164268891242   -1.76307614717404   -3.75346678397616
C          -4.41236579613060   -0.49311634661227   -4.46320836839114
C          -5.41789499509997    0.08285862605457   -5.19237470518707
C          -5.31063018679947    1.33420468648836   -5.83839072315631
N          -5.28288542500280    2.34080348403570   -6.38838438578937
C          -6.70738332153436   -0.45832595261760   -5.39162250408407
N          -7.78047478719603   -0.81316053880794   -5.59383159431673
C          -5.43217714003305   -2.70454113735677   -3.94119456968680
C          -5.68158118274667   -3.93836457231069   -3.26045543999957
C          -6.43471350734740   -4.91293601940683   -3.94964334256749
C          -6.69997303478855   -6.11562609207830   -3.35048707684241
C          -6.25540959836609   -6.36902672210174   -2.03902514466665
C          -5.56461750145567   -5.39655187423945   -1.32755123598662
C          -5.28200880055200   -4.19378922063351   -1.93794175070324
C          -6.64289861435919   -7.71214938903236   -1.67602059580384
C          -7.34725620793902   -8.28550111434782   -2.75048273427659
C          -7.48664176950146   -7.29440421178430   -3.88489612542570
C          -8.94667604091030   -6.81663119112782   -4.07055272148068
C          -9.95690811249317   -7.89318366274271   -4.44368760560769
C          -6.89390595658621   -7.83380832514729   -5.19596467152955
C          -5.41655882472232   -8.18710970107236   -5.06476769660122
C          -7.76405419870674   -9.59551671311742   -2.68329879325865
C          -7.49320576919053  -10.34274407494940   -1.52945041183173
C          -6.78998642428341   -9.75881992594035   -0.46770948468495
C          -6.36708163048918   -8.44857669447967   -0.53175178942901
C          -7.86548118693666  -11.73777636846717   -1.40443155253981
N          -9.03040728138824  -12.30024476919000   -1.86273782558934
C         -10.15155192715036  -11.62677315080248   -2.45980755106064
C          -9.10624132285895  -13.67632546767861   -1.55516858943294
O         -10.06335668784976  -14.36120599700783   -1.86329839712865
C          -7.86408708541754  -13.96349855636624   -0.87916759162048
C          -7.13299424177934  -12.73755039697081   -0.79668323703745
C          -5.87386195290935  -13.01458471832199   -0.15515160857890
O          -4.90994171527079  -12.32661191139824    0.10785293865692
N          -5.93750764655129  -14.39476596280367    0.15040699891669
C          -4.77106539363284  -15.03984458623975    0.69116045783060
C          -7.11917123156712  -14.96092186505633   -0.26596420589774
C          -7.51844023587712  -16.33755349721426   -0.06746955583625
C          -8.49995942776464  -16.86117645719502   -0.92469612511095
C          -8.93710193289113  -18.14954347981142   -0.74614632725223
C          -8.40296488317234  -18.95431273128435    0.27297660227574
C          -7.45079070677729  -18.43981348429413    1.14126011567838
C          -7.02317444554553  -17.13804303914388    0.97169852938438
C          -9.03074281440063  -20.25387475523529    0.20601076183535
C          -9.97925184498765  -20.24124325334865   -0.83699498785918
C         -10.02607566792872  -18.88171678532290   -1.49769118071235
C         -11.35220461756127  -18.14365276693819   -1.18776487871400
C         -12.57831337030569  -18.63570815139269   -1.94409481966354
C          -9.74540624042245  -18.94921989203459   -3.00561619066830
C          -8.36579969603655  -19.52010318990721   -3.31488003336244
C         -10.70678396288644  -21.37201602683250   -1.11094396634255
C         -10.50261715942669  -22.53192983179942   -0.34348015732378
C          -9.51808836491008  -22.54169100056867    0.65327289587135
C          -8.79594912291553  -21.40481415672274    0.94521169631313
C         -11.26855549249612  -23.72382865358680   -0.58336151859618
C         -12.56043602035519  -23.81971431589053   -0.98554253251452
C         -13.07339909937293  -25.10355608653350   -1.53324353836965
O         -12.53401524502090  -26.18293718965916   -1.49259003227960
C         -14.35961850492288  -24.75886648409256   -2.18520418044971
C         -15.18302309389094  -25.56507625590295   -2.94235905222330
C         -16.33866916706304  -25.00104117082593   -3.48527061995426
C         -16.63470981142023  -23.64200248113322   -3.26361557353212
C         -15.79916813008562  -22.83666069454351   -2.48798600385640
C         -14.66091219063179  -23.40427669418061   -1.94084686479415
C         -13.62972952857058  -22.84159515197322   -1.06792994398614
C         -13.79063294392251  -21.73144450199592   -0.28533642997411
C         -12.90576114495164  -21.34541293516069    0.74594894873106
N         -12.27161465325221  -21.00522433481359    1.63902705066069
C         -14.92061454851470  -20.88663158541935   -0.34556601646435
N         -15.81289366802854  -20.16612395689785   -0.36914101970405
C         -17.80088965270942  -23.08067867865974   -3.84099357874112
N         -18.73803170951660  -22.61722506229852   -4.30748155650640
C         -17.21210991565577  -25.79472210454911   -4.26731495139118
N         -17.90667552196048  -26.45253830596953   -4.89659277316808
H          -3.04854825966652    1.96454866091975   -5.33064774980793
H          -0.60540331974060   -1.04523223570818   -2.18982421393838
H          -6.12160571397096   -2.51744056292125   -4.75708631445586
H          -6.76959643831004   -4.70640744698722   -4.95611325187413
H          -5.25221488604645   -5.57708683567988   -0.31074715105955
H          -4.76541945189598   -3.43092898192628   -1.38211870396129
H          -8.94633209484195   -6.04664394486680   -4.84482051122469
H          -9.26654573546426   -6.34441167900998   -3.13784712590840
H          -9.67192745076263   -8.40708798969165   -5.35775404312722
H         -10.92761990215474   -7.43084765513275   -4.60799052253915
H         -10.06320036543407   -8.62089215606431   -3.64435357098533
H          -7.02107511896122   -7.07984030923990   -5.97549882339213
H          -7.44563245652052   -8.72447075910504   -5.49872701394782
H          -4.83113830366591   -7.31165350482230   -4.79266383130031
H          -5.03925309363512   -8.57188423724008   -6.00930595291956
H          -5.26854885258665   -8.94704733103522   -4.30052499243749
H          -8.23821093243634  -10.06681368314043   -3.52861495264308
H          -6.57196317360853  -10.35398610098192    0.40390159255982
H          -5.81552094164604   -8.01150408627242    0.28587314569364
H         -10.02411182226093  -11.51375685436687   -3.53928731175850
H         -10.29667228843542  -10.64838145069851   -2.00236240589959
H         -11.03025766956082  -12.24994466690500   -2.28692331631605
H          -3.92441683391792  -14.38413177373348    0.47788993004960
H          -4.61256829698104  -16.01076507612702    0.22308406517697
H          -4.83901572435432  -15.15460676536827    1.77577668183177
H          -8.91004072314992  -16.24544055415851   -1.70697030674032
H          -7.05947261314760  -19.03830989745711    1.94985017336010
H          -6.32772446230032  -16.72929097133951    1.68426125539986
H         -11.20569255019073  -17.08560008362740   -1.41289900538000
H         -11.53680767082404  -18.23262208687448   -0.11382622034922
H         -12.47972595240718  -18.46772437462155   -3.01308882109839
H         -13.45504066717373  -18.09377178275179   -1.59686961118544
H         -12.75302218978675  -19.69414795507264   -1.77005855456284
H          -9.82599380151842  -17.94192476968405   -3.41760921673619
H         -10.50180347311923  -19.57327786545797   -3.48310289677698
H          -7.58447287966199  -18.89577900494692   -2.88748589774944
H          -8.21450380537630  -19.57085686965728   -4.39063677609252
H          -8.26387550439174  -20.52361268737920   -2.90602995030376
H         -11.40122625183418  -21.40699161681442   -1.93779271146553
H          -9.36189905302229  -23.44554984179680    1.22284497192754
H          -8.05617729586746  -21.41265945976610    1.73072890902289
H         -10.74680393616268  -24.66990216677008   -0.47531356394975
H         -14.93994202156840  -26.60328776654861   -3.11020527034523
H         -16.05195758715259  -21.79811694773134   -2.34267651849356
