117
 SCF done       -229.010667749817          0.000525346406
C          -0.98827372874028  -16.70088367337984   -8.77840172988750
C          -0.69678583467526  -17.74682915955406   -9.63723486059089
C          -1.07643405240775  -19.03919364378883   -9.26617242726132
C          -0.78308539649376  -20.12386132469334  -10.12893675806929
N          -0.54261943135640  -20.99650396516835  -10.82996316810997
C          -1.74293237758096  -19.28528575795057   -8.05115626612706
C          -2.11575224148031  -20.60495910307058   -7.70189159320093
N          -2.42678659789132  -21.66476161671448   -7.39876214888693
C          -2.03542517681782  -18.22747127692730   -7.18793442832938
C          -1.65261302725588  -16.95891267373436   -7.56470554210336
C          -1.83426619286630  -15.68732736603656   -6.82904736158770
O          -2.38202673877129  -15.56283181018915   -5.74860324837244
C          -1.22809035184302  -14.65032949102508   -7.66190840666413
C          -0.72642889170974  -15.26160948084011   -8.87266856922764
C          -0.12259449895118  -14.64498297785167   -9.93948269299244
C           0.34410084238159  -15.32220626673858  -11.08585773966389
N           0.74677033485255  -15.81386460443863  -12.04167967860278
C           0.11710337381021  -13.26037626398153  -10.06308376404667
N           0.34482334098471  -12.14939448449888  -10.24632941317759
C          -1.12575928180687  -13.31695981660428   -7.32826914761890
C          -1.54834512959252  -12.63722779248710   -6.18479180882225
S          -2.39094360452060  -13.29449165422469   -4.80085104305419
C          -2.40317562682504  -11.74701867507177   -4.02730839315059
C          -1.78442806043150  -10.76951503092308   -4.80881184507701
C          -1.31668745629756  -11.26598884938142   -6.00265636208015
C          -2.97347310057754  -11.57359104067571   -2.74467272949838
C          -3.00016420197492  -10.43180535133846   -1.96015319189180
C          -3.62104019225544  -10.61687439598921   -0.73174403483244
C          -4.09298516029128  -11.90590250509797   -0.54273252379353
S          -3.75269655366801  -12.89836010803021   -1.92583848501565
C          -4.75320650013676  -12.43434240131183    0.59619725520454
S          -5.36543120695195  -14.06073054951825    0.61009773609234
C          -5.91695230442459  -13.89803388228685    2.25243571704019
C          -5.63407361787763  -12.63131381750435    2.73427511857274
C          -4.99009317591131  -11.81484658375213    1.81140140015639
C          -6.53777174538908  -15.00899738593016    2.88020847773786
C          -6.88709307907777  -15.06258650166941    4.18905075390732
C          -7.48063095250907  -16.18051847115049    4.82838974995937
S          -7.68071751746676  -16.16412420904914    6.55452358634289
C          -8.36820672230036  -17.74765752589973    6.58337476434082
C          -8.43720120042911  -18.25717113543880    5.28663092891790
C          -7.93386701897274  -17.38786833441866    4.29154546934452
O          -7.87979175478561  -17.59244551256551    2.96414728987779
C          -8.56420461777564  -18.69297673506745    2.37515884159732
C          -8.68485380800839  -18.40244372439640    0.88822361984297
O          -8.87630195835862  -19.53514437287216    5.03487968850702
N          -7.91245766910693  -20.57757190928258    5.30158724728787
O          -8.34616156731218  -21.65170838173656    5.10223551740982
O          -6.85362691416139  -20.21466707778746    5.67198990909741
C          -8.72428396456747  -18.34265813439334    7.82130104895490
C          -9.44487559780777  -19.48185794681720    7.97747320588827
C          -9.71965243461643  -20.09635592387834    9.22639819370666
S         -10.65539457952953  -21.56521495631165    9.25595003424284
C         -10.49974904902072  -21.68679269212644   10.98218067498795
C          -9.76366051212639  -20.62917452172987   11.48399472610407
C          -9.32868723113087  -19.74232757102008   10.50597453222860
C         -11.07028878394358  -22.77029021454534   11.69560240255246
C         -11.81990465833216  -23.81771624772336   11.19321449268474
C         -12.21828094106628  -24.72897641942059   12.16435962250143
C         -11.78160954659632  -24.40339045941159   13.43663455357752
S         -10.86055614717148  -22.92525355523393   13.41386920988679
C         -11.99999534378407  -25.11522610613721   14.64199378017764
S         -11.34483138205031  -24.56517900651668   16.14885315883861
C         -12.03691195276350  -25.92287271883534   17.00025049130036
C         -12.73813764793069  -26.73881799869795   16.12030018277475
C         -12.71833451599212  -26.29296296287117   14.80967326902825
C         -11.88512813557444  -26.10100146319973   18.38594357382917
C         -11.20313818073233  -25.24743282800981   19.20537936891731
C         -11.09209548237330  -25.45298291127546   20.58778960687774
C         -10.52360580895798  -24.61783810354031   21.51578381922805
C         -10.12906093550445  -25.15448068352545   22.83624543952358
O         -10.42996840212580  -26.22362538598412   23.31664880515992
C          -9.23914768904408  -24.12270681595477   23.42476665326105
C          -8.52399640912392  -24.17266579763773   24.60145773692597
C          -7.71352413411593  -23.08281578672904   24.92671692192543
C          -7.63820214055740  -21.97534157911672   24.06109865863791
C          -8.37689539437964  -21.93076553398964   22.87637200384410
C          -9.18426547884595  -23.00984986394952   22.56279388836297
C         -10.08883199752320  -23.24598925977778   21.43306104070516
C         -10.58138139044336  -22.26380931725899   20.61078442510620
C         -11.67664573744991  -22.42746329113157   19.73650194417434
N         -12.59635485142950  -22.47551815120357   19.05129557759943
C         -10.12714089001256  -20.92891916902291   20.62047137658744
N          -9.77955047593753  -19.83598325158278   20.56970215543250
C          -6.79509096583823  -20.88704728987825   24.39518874168482
N          -6.11294936883997  -20.00481469267757   24.65477214170221
C          -6.96124771766279  -23.09472806074351   26.12541596405973
N          -6.35980011448683  -23.12328888419069   27.09964610786374
H          -0.18766663821466  -17.60085157591000  -10.57629941046460
H          -2.54475326767262  -18.39723251678062   -6.25151966419581
H          -0.62808732105827  -12.67472235300636   -8.04468825496238
H          -1.69058295190982   -9.74287435437139   -4.50535902642206
H          -0.81072090997987  -10.67526257924545   -6.74627040985701
H          -2.57309920955912   -9.49709412885110   -2.27472638295129
H          -3.73097840945911   -9.84067309215816    0.00307001740650
H          -5.89344603352769  -12.31111960223418    3.72682032399051
H          -4.69182107710341  -10.80301356407105    2.01780787071713
H          -6.70947448721892  -15.87193655505345    2.25625512847612
H          -6.68752659213031  -14.21899222740990    4.83539992831037
H          -9.55545504042082  -18.80780361506775    2.82681237594707
H          -7.99087290481698  -19.61578190056607    2.53068573441435
H          -9.25122817882361  -17.48844016627449    0.73048350030939
H          -9.19259653746866  -19.22641239316337    0.39603755124108
H          -7.69790782728593  -18.28039316246361    0.45035852494367
H          -8.37544930697518  -17.81265212592469    8.69587722700284
H          -9.86541702806498  -19.98226630579126    7.11691296307280
H          -9.55567151931364  -20.52213460687108   12.53413926619246
H          -8.74088367814710  -18.86858846223081   10.71935265937706
H         -12.06034055014544  -23.90337620815260   10.14837725912230
H         -12.80548716269283  -25.60360726256479   11.95307203841451
H         -13.24549381229689  -27.63033854148976   16.44378678079713
H         -13.20864424083597  -26.79728721819458   13.99748517955470
H         -12.37825908620726  -26.96464438388714   18.81443546826091
H         -10.71831705312357  -24.39002468265787   18.75986680905597
H         -11.41971970266617  -26.41146145921235   20.97722853298594
H          -8.58740496745238  -25.03128995407008   25.25253189058392
H          -8.29234016685068  -21.06757076689402   22.23524288160193
