128
 SCF done       -220.319962065472          0.000475276773
C         -11.82827599521790  -18.90008531454539    9.48241060488598
C         -11.98652522461356  -19.68522945946670   10.61365369285452
C         -13.23974645915392  -20.24615141736084   10.86527868415824
C         -13.42144892111891  -21.05082039352116   12.01740690611937
N         -13.56177274351610  -21.69936106804592   12.95033822218384
C         -14.32761621501064  -20.02824296807632    9.99778481679364
C         -15.58743739300430  -20.60714185683104   10.28234154804046
N         -16.61500181122282  -21.06641216022916   10.49389042071911
C         -14.16238917467512  -19.24135448099315    8.85778085358265
C         -12.91937154929307  -18.69383181674431    8.62211662124354
C         -12.51143101128989  -17.83493331678917    7.48585354086055
O         -13.25195473545618  -17.49784414628607    6.58737393781577
C         -11.07877168214192  -17.53677081774281    7.70126092442961
C         -10.67425857287391  -18.17516967928129    8.95008843447959
C          -9.45854034880781  -18.10258499363076    9.57801048729358
C          -9.15839835085958  -18.74670952840028   10.79929123111516
N          -8.84288789823261  -19.24134324636128   11.78553879982973
C          -8.31906946179883  -17.38289987631064    9.15376356398541
N          -7.33989859256723  -16.83032829420762    8.91666292300282
C         -10.19127213749000  -16.83980873506918    6.92436218440933
C         -10.27960733206243  -16.06884911739686    5.72776928349832
C          -9.06496285460197  -15.50003244952534    5.27235649642298
C          -9.05874416832288  -14.68958531336402    4.17045820397735
C         -10.25523533567981  -14.42533261423500    3.47436369665204
C         -11.45104750812500  -14.99733337016348    3.89173121228872
C         -11.45958425014790  -15.80635143749468    5.00665454907547
C          -9.96813135837005  -13.49598003997559    2.40788033805609
C          -8.59753521129161  -13.18149350384033    2.44267483926636
C          -7.89328081268912  -13.98363300062509    3.51105678312154
C          -7.11789152229087  -13.09777762799608    4.49669804562635
C          -8.01450914306435  -12.08115702779153    5.19454555304368
C          -6.98827258236022  -15.07648708398910    2.89110492012853
C          -5.85646050689211  -14.57535438306672    2.00394534947725
C          -8.08605533434381  -12.22706078663021    1.59364865048842
C          -8.93349590051598  -11.61046554667167    0.67068169275753
C         -10.28587271701620  -11.95678669875609    0.61918947571184
C         -10.81302982870573  -12.89113014599614    1.48715774719822
C          -8.41948500996161  -10.58098056477187   -0.22067847426364
C          -9.06173547901652   -9.44223283421040   -0.62218074603253
O          -8.27589766400808   -8.69611436604985   -1.41661683630829
C          -7.11110349135516   -9.33627360743138   -1.53565947512586
C          -7.11766302611517  -10.50685570930244   -0.82208255628879
C          -6.05902707620380  -11.53270241521681   -0.84482637491900
O          -6.29190457265252  -12.72660339390708   -0.84327864958556
C          -4.70574618512811  -10.98966301320434   -0.92503610975132
C          -4.23308077658398   -9.78170694496698   -0.46819102772636
C          -2.86946267843239   -9.60084980638210   -0.71177834775755
C          -2.29003968179620  -10.65870924246559   -1.37665901370945
S          -3.44204220033951  -11.92267612333200   -1.65455259241910
C          -0.93363986835804  -10.74034244804178   -1.87549286661545
C           0.07920534395546   -9.96506243847958   -1.29474339208549
C           1.33539423250588   -9.97482763424328   -1.85038391023300
C           1.60839682765749  -10.74877468298796   -2.99182381026832
C           0.62345426687177  -11.55584129568275   -3.54401082427856
C          -0.63537960913124  -11.54883100877856   -2.97825772887836
C           2.97484742382638  -10.50205625019484   -3.39592716762126
C           3.55257723946655   -9.59481699837523   -2.48866758383287
C           2.56244920562582   -9.20991032132248   -1.41637064321872
C           2.30968025263146   -7.69077692441696   -1.40361165909300
C           1.79327290488902   -7.16293850505190   -2.73644829553299
C           3.03969924955716   -9.66714675673800   -0.02374840346156
C           3.32564936841678  -11.16243444117431    0.04649467009102
C           4.84868192926062   -9.17628964760221   -2.65029296900256
C           5.57286335265826   -9.60385826649205   -3.77467326913851
C           4.98992470568419  -10.51807631540720   -4.66529791269941
C           3.70748988509381  -10.98488942450265   -4.47269429573316
C           6.91120911721625   -9.11811665627874   -3.96774275578048
C           7.56603374315185   -8.88449967687537   -5.13272690029588
C           9.04635816601674   -8.74288489318481   -5.13529104538893
O           9.76910190039770   -8.60775274848405   -4.17773749541774
C           9.44260579093941   -8.85688219928214   -6.55951277706147
C          10.71112288584086   -8.90178980205081   -7.09814321967846
C          10.83464552484640   -9.03962725067669   -8.48165531070751
C           9.68477973848402   -9.13777635630971   -9.28906474343611
C           8.40489910151972   -9.08219951738305   -8.73483798667572
C           8.28765517915503   -8.93389608274922   -7.36322801371339
C           7.10856510178881   -8.80140577520772   -6.50706615822909
C           5.87056679785721   -8.40504836146242   -6.93309087695496
C           4.83153628759215   -8.00283900570571   -6.06712470300633
N           3.97544276220660   -7.59228631356814   -5.42328551959240
C           5.51814784485847   -8.25215122911922   -8.29103392583656
N           5.18681334385033   -8.13303436470115   -9.38284520735732
C           9.82947982534325   -9.29786685595695  -10.68979374317924
N           9.93667232255847   -9.43144336354935  -11.82163120636706
C          12.11902183565408   -9.08596029567261   -9.07577791769678
N          13.16542723517142   -9.12121875579872   -9.53934211352583
H         -11.18101020475174  -19.87967964101757   11.30297727367301
H         -14.98228386934863  -19.06311795350073    8.17856239496611
H          -9.17726255215982  -16.85642993084875    7.30726146516015
H          -8.15180839738252  -15.69771420296114    5.81585657262126
H         -12.36826614672272  -14.80365502727665    3.35681851418702
H         -12.38744979917221  -16.24081446253190    5.33528450201249
H          -6.33279500985870  -12.56784640501499    3.95650286718941
H          -6.63998354798825  -13.73478947178954    5.24354570392244
H          -8.49203838595731  -11.42737573137178    4.46745175931798
H          -7.42736046592442  -11.46906111730413    5.87515211882129
H          -8.79253300124465  -12.58051500265600    5.76786803765868
H          -7.62378347626555  -15.74244860896469    2.30158695896802
H          -6.56889188014360  -15.66157507389891    3.71337053438371
H          -6.23871250212664  -14.07982109448880    1.11561979714940
H          -5.25838544214094  -15.42388243715829    1.67874837810257
H          -5.20227199898191  -13.89267380503601    2.54065238578228
H          -7.05053781071125  -11.93001617445826    1.64733916115766
H         -10.92024999162976  -11.48181971687190   -0.11380264098323
H         -11.86271958818421  -13.14082566946893    1.45463518026707
H         -10.03670857488791   -9.05998869660535   -0.39404393892210
H          -6.36764311795156   -8.90140903587794   -2.17471886052976
H          -4.84953200305325   -9.06307336240975    0.04160215000739
H          -2.33691178082531   -8.70615596695765   -0.44437813214153
H          -0.13281797292239   -9.37100658091474   -0.41929260582540
H           0.82984269543265  -12.16821171103431   -4.40841870522435
H          -1.42073982982562  -12.15511412486951   -3.40527388709317
H           3.24299327057893   -7.18447113165647   -1.14983754358586
H           1.58639396269127   -7.46704159385993   -0.61616164909206
H           2.50636225352062   -7.35510696179867   -3.53310356666593
H           1.63261380761465   -6.08942109492725   -2.67188767375755
H           0.84911887549702   -7.63585627851637   -2.99824223833634
H           2.27075475184851   -9.41196034123137    0.70810684947009
H           3.94373930794041   -9.11200230398562    0.23426708486537
H           2.43222887314424  -11.73723726222796   -0.18723079020203
H           3.65530101149308  -11.43196950182691    1.04702967052776
H           4.10617337812378  -11.44036798635515   -0.65841621229632
H           5.30429261094955   -8.48116630992696   -1.96084857123958
H           5.57621487692515  -10.89001562854035   -5.49383628591710
H           3.27835099803302  -11.70162687773246   -5.15612098140704
H           7.50082727079229   -8.95701082666460   -3.06996488659478
H          11.58389238453425   -8.83086044184193   -6.46695065224547
H           7.54504829423157   -9.16475985090285   -9.38093288737791
