112
 SCF done       -212.030324521335          0.000288827695
C          -5.29946528454381    1.96186084829514    3.72585401523234
C          -5.04533648333752    3.31453267475198    3.87965221854715
C          -5.85093029731338    4.04802209359280    4.75367782824384
C          -5.60201995017968    5.43106138877288    4.93274294507149
N          -5.39429657265477    6.54805023879352    5.07478622227855
C          -6.90316771359465    3.43941816556767    5.46378643994372
C          -7.70451057723090    4.20834598839741    6.34059728946171
N          -8.36536889598905    4.81113971805056    7.05600547119081
C          -7.15328646086243    2.07505524011940    5.30704572429121
C          -6.34661405643314    1.36247938016972    4.44682327872236
C          -6.40242067825842   -0.08620670742994    4.13556073901728
O          -7.22371742818445   -0.85803746609441    4.58687322192902
C          -5.28136104672598   -0.33667679350056    3.21336026645830
C          -4.65311776324516    0.93401815519865    2.90743989916579
C          -3.66916157592894    1.18470583136627    1.98447461526272
C          -3.12042815823642    2.46211304491474    1.74236541661230
N          -2.63086256603249    3.47126748961189    1.49810238122118
C          -3.07813488189747    0.24195805241395    1.11621104812717
N          -2.55131427935720   -0.44472174493910    0.36089008984926
C          -4.79814976901056   -1.54482191982400    2.76109149368293
C          -5.25029807689480   -2.85646257362895    2.94449892498429
S          -4.22222535911339   -4.13723719223362    2.31035512304712
C          -5.30736923564479   -5.35706881246232    2.87918108506569
C          -6.41283012338802   -4.78609472631828    3.50487575632532
C          -6.38253893432888   -3.40666327436119    3.54112021914393
C          -5.02772709772446   -6.73269056930201    2.72806586321200
C          -3.92869728134277   -7.32660002962222    2.13259749055410
C          -3.93974391431765   -8.71324049685158    2.20520464665199
C          -5.05090774353507   -9.22219395861070    2.85860675618458
S          -6.10410972633250   -7.94175538896207    3.37720121925101
C          -5.34949840602674  -10.57623599293290    3.14996320755453
S          -6.83741473052642  -11.02530858806612    3.93196887303246
C          -6.37073201935640  -12.70176902153977    3.98215805279743
C          -5.12680839018552  -12.87296970285914    3.39810622249265
C          -4.56079665134823  -11.69249225731749    2.93103723809656
C          -7.23731763351209  -13.64061778268495    4.59721659131827
C          -6.91754107986675  -14.92704206209176    4.88535713167851
C          -7.78095741256130  -15.84130268680437    5.53965819622157
N          -7.32235301609598  -17.07729865745287    5.95461722260794
C          -8.33417263938021  -17.72722381576828    6.58623030733142
C          -8.67220133865690  -18.89166520373419    7.26781082020696
C         -10.01837211942613  -18.75324710928400    7.62786477703644
N         -10.48970468362391  -17.53800229579538    7.16923607966493
C          -9.47566573410730  -16.88593781472851    6.54431569208242
C          -9.12896540971066  -15.70648451652277    5.89520619031077
C         -10.86826620791349  -19.62897364777735    8.34967114920294
C         -10.46747881663365  -20.76583995644821    8.97096214980403
C         -11.32151955451940  -21.62760522752582    9.70648932584060
S         -10.62932091053643  -22.91909745643235   10.65013829773702
C         -12.19980811175431  -23.42243430746641   11.20831923326559
C         -13.18802276023066  -22.62438883622140   10.66417098647709
C         -12.69978300512430  -21.62295496472452    9.83265919988559
C         -12.34891628191237  -24.49738100517817   12.11716117031201
C         -11.35809454857094  -25.22915576945423   12.74520817977898
C         -11.85024217173420  -26.19846465505780   13.61156271022805
C         -13.23075801474447  -26.24186367780165   13.66401749558279
S         -13.92756141027526  -25.04103250634174   12.60720517301213
C         -14.05318273363874  -27.09295153978971   14.43650879510973
S         -13.38169820260534  -28.20678996391898   15.58334406888207
C         -14.97107137166664  -28.77760157075000   16.03384938359355
C         -15.94792775786220  -28.11401633714588   15.30221587863806
C         -15.43903065744551  -27.17605261860116   14.42084398711807
C         -15.10228048844217  -29.73675927937306   17.05349130339142
C         -16.27155191275737  -30.34010453490953   17.42531808157090
C         -16.39475837531166  -31.29546799058225   18.44874200934187
C         -15.57236269359784  -31.57612785112516   19.51334751890951
C         -15.69845126391049  -32.89932056321587   20.16683749896233
O         -16.56156973608116  -33.72840741168006   19.98678100130411
C         -14.51646503720805  -33.01365497937569   21.05585134835374
C         -14.10305999261355  -34.09188829681973   21.80744331351227
C         -12.92372691392377  -33.96659444246802   22.54517909611270
C         -12.18893252902894  -32.76675119758938   22.50418194442999
C         -12.62418913061962  -31.67658136283995   21.74677438534261
C         -13.79804212563273  -31.80330715993223   21.02552994498813
C         -14.51787689215589  -30.84987925182779   20.17424428928055
C         -14.34628899307967  -29.48807429866723   20.23220850953473
C         -15.19802334023579  -28.55708809349619   19.60722399071734
N         -15.87431870445820  -27.75222973569565   19.14594102816431
C         -13.34364718510334  -28.84918826676793   20.98841196634513
N         -12.53546076303254  -28.27799852708368   21.57052873596993
C         -10.98380645455660  -32.66268161699224   23.24134678379932
N         -10.00580028329477  -32.57084948187984   23.82971572437373
C         -12.46255488568656  -35.05040326621347   23.32964260537687
N         -12.10488653481158  -35.93920318111920   23.95724200569647
H          -4.24831322475745    3.81792629452013    3.35664746477158
H          -7.95295485222384    1.58955547482146    5.84562669558048
H          -3.88417750012509   -1.49142488597911    2.18132118587607
H          -7.20401372336367   -5.38594920002769    3.91942185262302
H          -7.14591861536601   -2.79787357899664    3.98889256072059
H          -3.14756352102279   -6.75085981099978    1.66811885678975
H          -3.16595278383954   -9.33776564829205    1.79833529779644
H          -4.64920611035685  -13.83165535566422    3.30847530284552
H          -3.59799556104649  -11.64092817717156    2.45574795778079
H          -8.20854526421500  -13.26498485468833    4.88478577650023
H          -5.92992599880717  -15.29504804176110    4.64024130895380
H          -6.37957878518063  -17.40493185284931    5.83399422803915
H          -8.05044622492479  -19.73760907712434    7.47828067797771
H         -11.42302855720632  -17.19571885399101    7.31911946037707
H          -9.75087609400191  -14.85940614805581    5.69010314488883
H         -11.90602996197799  -19.32984165976037    8.41730273097009
H          -9.42360305402715  -21.04246554087996    8.94382610389236
H         -14.23076108686036  -22.77589947812956   10.88241696905512
H         -13.33223947031574  -20.91719536322026    9.32594056268696
H         -10.31259748599632  -25.04461783079349   12.57313972958456
H         -11.23326422844280  -26.86024282840527   14.19340164395295
H         -16.99786896006873  -28.30207950897585   15.43027437991591
H         -16.03927406225378  -26.55778434067085   13.77680538056659
H         -14.18213970595745  -30.03824191711149   17.53829590347893
H         -17.16251784052167  -30.14138865373181   16.84726199792525
H         -17.23870282966696  -31.97462604932393   18.36576519275663
H         -14.67415167252433  -35.00765803769164   21.82448285653793
H         -12.03373287567650  -30.77408939375066   21.73567021536905
