134
 SCF done       -220.660089107857          0.000379976356
C          -2.00232457198739    0.15956783001858   -3.52064570839095
C          -1.39900814140677    1.40665160808630   -3.54349431710966
C          -2.21338792714202    2.53964183055423   -3.50524491412808
C          -1.61708827707532    3.82502164277609   -3.51898990998051
N          -1.12844283571465    4.86027034218197   -3.52671593206998
C          -3.61638306130156    2.43003253764999   -3.44795693430318
C          -4.41535955267993    3.59790494174162   -3.41457148175652
N          -5.07846079375157    4.53111826315959   -3.38611312070499
C          -4.21867399304351    1.17148454430281   -3.41856452071700
C          -3.40346235808593    0.06036001665824   -3.45364884723456
C          -3.80831295468765   -1.36671129730309   -3.41565626584750
O          -4.94773365010873   -1.76704360176574   -3.34058138076111
C          -2.53970496594578   -2.13323303211783   -3.41211314212402
C          -1.44124455511531   -1.18949487598984   -3.54682846505470
C          -0.12037502609304   -1.48995781645408   -3.74633476011962
C           0.89713662292768   -0.52250650258617   -3.89500421915700
N           1.76583324976525    0.21728004540674   -4.01625025954284
C           0.41489234382007   -2.79167355408572   -3.86542566642289
N           0.93070790211433   -3.80945482479698   -3.99194370422876
C          -2.37259374764654   -3.45625056571157   -3.11781883128642
C          -3.32461825916786   -4.51816177348208   -3.01868063635662
C          -2.97280333263170   -5.61934011376155   -2.20854598611132
C          -3.84545182051962   -6.66345742445801   -2.06581322457064
C          -5.07371651390409   -6.66836315375389   -2.75756507592856
C          -5.40849675565226   -5.61437681403530   -3.59860910751030
C          -4.54168920361768   -4.54910593856032   -3.72015412825646
C          -5.78033317125621   -7.88448242816033   -2.42640822007394
C          -4.99317579508660   -8.62785724194996   -1.52981707977348
C          -3.69676792735955   -7.91426977204004   -1.23351941931586
C          -2.48406473834275   -8.74886549094380   -1.68863676666777
C          -2.54265470935111   -9.12782018818080   -3.16312066102260
C          -3.56348645025386   -7.57871024784227    0.26362184730731
C          -4.73145645282325   -6.75439211898105    0.79193949626209
C          -5.43221418454640   -9.83476508228680   -1.04436395270845
C          -6.67091686432759  -10.33359937562275   -1.46407298658145
C          -7.45471325403048   -9.57624871518716   -2.34206275004985
C          -7.02131602703538   -8.35979479281337   -2.82792568863478
C          -7.16945763976504  -11.60419012455277   -0.97075603902666
S          -8.86261313782292  -11.75213832252487   -0.63504538439110
C          -8.67809066306763  -13.39418401423170   -0.08014036516352
C          -7.35578833317166  -13.78893445699343   -0.16258142568895
C          -6.50903728527755  -12.78365589731982   -0.69221776875396
C          -5.06386919839054  -13.05281811759787   -0.98501259466900
S          -4.55569407048497  -12.40651887589174   -2.63682705618150
C          -4.73842868248755  -14.53956050015441   -0.90755791884143
C          -5.30952716865798  -15.11561248704606    0.38002862098061
C          -6.83321404900502  -15.11394374726733    0.30087164925522
C          -9.87552663262080  -14.05350875883642    0.33692968562082
C         -10.03369060853745  -15.33513367041646    0.71955252693672
C         -11.28344411130135  -15.94347608287308    1.12010669719210
C         -11.23369526472125  -17.17314378798908    1.79624251534332
C         -12.39697779904689  -17.79171238898482    2.18095227219091
C         -13.64268647090205  -17.21048617976255    1.88625776434941
C         -13.70746063491359  -15.99361327609760    1.21991418469628
C         -12.53415437321812  -15.37145859757469    0.84868448851533
C         -14.68248693588233  -18.09979692692617    2.34618607030030
C         -14.08119596973955  -19.23126816696784    2.93115166455614
C         -12.58004259228308  -19.07352034541189    2.96389548361884
C         -11.84123495790775  -20.26364719723192    2.33819001454582
C         -12.24748279698284  -20.50019324808323    0.88799089863257
C         -12.08873981428568  -18.78806182007335    4.40538677322217
C         -12.45132363559268  -19.83941178750542    5.44526460177652
C         -14.85238143582523  -20.28498429143851    3.35131035844281
C         -16.25231188533022  -20.18542464625099    3.28598563403533
C         -16.83822588836290  -19.03949844344691    2.72514340048927
C         -16.06508504445961  -18.01087845892789    2.23539156503626
C         -17.05077483316650  -21.28346495120059    3.74915517313714
C         -18.30330318619049  -21.24926765810214    4.27349380384391
C         -19.13304874287106  -22.48021615988426    4.30976355284733
O         -18.76875780614340  -23.61695130241220    4.12576253711772
C         -20.51536271506324  -22.00315212098914    4.56138353044625
C         -21.68857070190051  -22.72704157114024    4.55987478757682
C         -22.88486415766745  -22.04291962336794    4.78352197219825
C         -22.87563319363099  -20.65118234988389    4.99904161863728
C         -21.68070126892299  -19.92929601580562    5.01243617599694
C         -20.49707615557644  -20.61359033292255    4.79599532067756
C         -19.10877143420714  -20.15318977857214    4.77407273082605
C         -18.64406122020479  -19.01020320462893    5.36674529349705
C         -17.27245214276606  -18.74620225007157    5.57188908793329
N         -16.17620920313433  -18.52138736660668    5.82478758279194
C         -19.48009665022050  -18.01843151937252    5.91976677785627
N         -20.12911842258562  -17.18176832230319    6.36159026438185
C         -24.10229442127473  -19.97041925652475    5.19876022727890
N         -25.08915633991438  -19.41163164209104    5.35484305676843
C         -24.11198196939769  -22.74887177899982    4.78515398050197
N         -25.09433273794749  -23.33722388849949    4.78196644784161
H          -0.32857105468965    1.53058316835757   -3.58209467364393
H          -5.29210487769431    1.06857588152741   -3.36880999977165
H          -1.36109889997543   -3.76046096834899   -2.87029624748272
H          -2.02546168473512   -5.61212870725004   -1.68856917078851
H          -6.33461753579104   -5.62602475043005   -4.15252644581916
H          -4.79006046753488   -3.74050406407649   -4.38576408795913
H          -2.44136042167395   -9.65860950686261   -1.08664787152997
H          -1.57450613704841   -8.17640065123473   -1.49528758019025
H          -3.41630974783202   -9.74195428241462   -3.36778513511133
H          -1.65686343183665   -9.69641036435045   -3.43476212006614
H          -2.58705370424376   -8.24012610800052   -3.79016119710530
H          -2.63203679976518   -7.02990810653260    0.41722568483148
H          -3.49537116565773   -8.51241147324526    0.82569437257291
H          -4.80890070727077   -5.80884150890170    0.25966104298006
H          -4.59130497851685   -6.54257571192941    1.84937483968713
H          -5.66880000788020   -7.29290841796243    0.67031236833283
H          -4.84070924072400  -10.38463030486082   -0.33001629546162
H          -8.41407575061096   -9.96663345932954   -2.64985063183924
H          -7.63738322294847   -7.79274791720542   -3.50905821910984
H          -4.41805386079081  -12.50622975838042   -0.29156335759504
H          -5.42867953639569  -13.12807039867042   -3.33618615481892
H          -3.65686810413212  -14.67300513697217   -0.95477491280496
H          -5.18000801037644  -15.05850279384994   -1.76241466389111
H          -4.98055756023942  -14.51112258694692    1.22825967236760
H          -4.94984960102589  -16.13415960034276    0.53164953173275
H          -7.25061217241873  -15.34116203115065    1.28458095417361
H          -7.16142065367905  -15.89436556842721   -0.39402205088991
H         -10.74309379389756  -13.40623001312794    0.32353044980447
H          -9.18359591890171  -15.99729734631346    0.75999714824024
H         -10.27312624057691  -17.61914169720667    2.01247697426895
H         -14.66098010598391  -15.54233341645393    0.98999750713563
H         -12.58474396224662  -14.43509881288539    0.31520060069060
H         -12.04981759068309  -21.16238755755814    2.91958281120145
H         -10.76667788491427  -20.07637435511735    2.38864050331369
H         -13.31344056343354  -20.70534224080856    0.81645598994452
H         -11.70561956742857  -21.35016949836858    0.47976421769617
H         -12.02680868977767  -19.62598049756885    0.27929349782355
H         -12.51321643004661  -17.83205006069533    4.72101529151307
H         -11.00306329163637  -18.67254838891302    4.36660610542249
H         -13.52634123831703  -19.87140100236206    5.59985744281928
H         -11.98426201510021  -19.57995920209211    6.39264508370641
H         -12.09951892399974  -20.82677424177506    5.15704224736625
H         -14.41027426124605  -21.17966812050911    3.76204080299174
H         -17.91348762662736  -18.99444677655147    2.62440166268096
H         -16.52638973758841  -17.15322447242057    1.76983475306842
H         -16.63359000408952  -22.27687050306878    3.61461771851850
H         -21.68220140532480  -23.79265983719211    4.38788546207508
H         -21.70737527717553  -18.86338797930500    5.17680056090516
