111
 SCF done       -227.551185731814          0.000652161664
C          -0.78515964123761   -1.81397377726294   -3.10157292696938
C          -0.55599393989374   -0.50325714176122   -3.48609874536372
C           0.43901504909657    0.21976853973115   -2.82459695896921
C           0.68221131797775    1.56574304243099   -3.19445198749408
N           0.87211460241936    2.65374848104806   -3.49581040424525
C           1.20234792916647   -0.36041913573645   -1.79352095683583
C           2.20563649419904    0.39640163480477   -1.14251964369902
N           3.02170079816574    0.99020665148560   -0.60127844245091
C           0.96578489057139   -1.68084731701694   -1.40823727286994
C          -0.02429938928804   -2.38018602266722   -2.06396340231471
C          -0.47123413116213   -3.77153953593665   -1.81703646387491
O           0.02935651028157   -4.52672295857569   -1.01040803719636
C          -1.60796483499273   -3.99019347472190   -2.73200210075685
C          -1.73639743765497   -2.81835283213313   -3.58009438328635
C          -2.54425098126519   -2.66388422391623   -4.67662908515467
C          -2.59655641432439   -1.49013195147181   -5.45949348218065
N          -2.69133655632780   -0.56333260908936   -6.12955077088411
C          -3.40780858079162   -3.64137922632623   -5.21736105518697
N          -4.11681101725289   -4.37941476511096   -5.73836283211568
C          -2.50151934409592   -5.03493065814569   -2.74969376393960
C          -2.56219182648187   -6.21863588634166   -2.00018806815063
S          -4.01987884376352   -7.18672278209437   -2.17784289541427
C          -3.45544963349241   -8.33615860624160   -1.01681800263656
C          -2.18975418576798   -7.99316585452204   -0.55220539425158
C          -1.69435523366228   -6.82367503277678   -1.09616235337581
C          -4.25379783286657   -9.42408030086406   -0.59382039970885
C          -5.52150398418827   -9.77830637627738   -1.01885134795895
C          -6.05714348636500  -10.85582118418061   -0.32362161728921
C          -5.21260173754152  -11.35588851686065    0.65161143975798
S          -3.71125367268743  -10.47865487038961    0.68387665020955
C          -5.46703493680082  -12.37971613632552    1.59559917773101
S          -7.02776265691447  -13.13450254008877    1.72697653992182
C          -6.51998637393316  -14.05480556147909    3.11776157943486
C          -5.18943663255533  -13.79398843594605    3.41213082171727
C          -4.60524579685030  -12.86258254547089    2.56661149127254
C          -7.45862911282914  -14.85633200364287    3.81112419808146
C          -7.20134235215079  -15.43896445909851    5.01174121341990
C          -8.14152861531425  -16.13969853980943    5.81227107858028
C          -7.77151176056229  -16.55085786112254    7.11813224748141
C          -8.69659127123794  -17.13284476275087    8.04947911251057
N          -8.25767707581676  -17.48135118269373    9.27904046010883
C          -7.02074412407895  -17.28397750467699    9.59539394165888
C          -6.10972193939400  -16.70234956643948    8.67806455050857
N          -6.48751099303814  -16.35449674640651    7.49295362289253
F          -4.83471348823493  -16.50008495543275    9.00728095946410
F          -6.63116878677062  -17.64955325563911   10.81607628913302
C         -10.05390311068186  -17.35174209470546    7.70984565198267
C         -10.39700819918185  -17.03627340594595    6.37529403488847
C          -9.47495516511310  -16.43149602254989    5.44488351916410
N         -10.05390497259806  -16.20648413118965    4.26375701202870
S         -11.57908120508435  -16.70289061207686    4.31323152649208
N         -11.59932899764078  -17.22299974861287    5.83118916769259
C         -11.04546082173175  -17.81404811794803    8.61864048300570
S         -12.65243756994712  -18.18228192751441    8.05454008876930
C         -13.17541732466881  -18.55622938899349    9.67079395744068
C         -12.14427253624503  -18.38766935546790   10.58042923263560
C         -10.95585579538511  -17.98434945708213    9.99319747837478
C         -14.50421232349902  -18.95674017082808    9.94923758946103
C         -15.50233228484628  -19.29814542181043    9.05473613789696
C         -16.69787952186626  -19.65558774802921    9.66770610997820
C         -16.65189909102303  -19.57766134752024   11.04887712790903
S         -15.07755955598295  -19.06879975085300   11.58761617887208
C         -17.69610720799917  -19.83398581956376   11.97349754134382
S         -17.57288344731091  -19.34640869416145   13.63109429485284
C         -19.16139328911611  -19.97263286309764   13.98790860117612
C         -19.72528126731745  -20.53674371844737   12.85200604306358
C         -18.91570199773100  -20.45131272187077   11.73040109796634
C         -19.70793831106077  -19.79042632698874   15.27409624405498
C         -20.86788099819586  -20.34452274377430   15.73002264045671
C         -21.40693779365598  -20.12084618738541   17.01335792659855
C         -21.22271935182728  -19.06850418365650   17.87189117980080
C         -21.54225724319233  -19.25744951721468   19.30796126742390
O         -22.11377098154480  -20.19544467289403   19.81382801232288
C         -20.97029825621274  -18.07473707493212   19.99614902626122
C         -20.90048961290956  -17.81288629060865   21.34750625831580
C         -20.28084264334523  -16.63063248604140   21.75783843043879
C         -19.74036605551997  -15.74765467555560   20.80381298905727
C         -19.82484502712541  -16.01941353540611   19.43651511081416
C         -20.45102911718151  -17.18632737590730   19.03502227515194
C         -20.72383315367884  -17.72475590506234   17.69876589777092
C         -20.74044426425650  -16.96733619006799   16.55477805692875
C         -21.23420199122612  -17.41296517256918   15.31269824964094
N         -21.65190317325075  -17.70221074738343   14.28343993133472
C         -20.33908967042921  -15.61696067613584   16.49560032411947
N         -20.01142724471652  -14.52230113952756   16.38670738974569
C         -19.09692093445706  -14.56214721599395   21.23742684282387
N         -18.57188335213303  -13.60352226911634   21.57825108872099
C         -20.18983297296427  -16.32106978368025   23.13607878027532
N         -20.12543699594691  -16.08691413453106   24.25519956643717
H          -1.12033114357073   -0.02148155157646   -4.26822398732559
H           1.53757227468954   -2.14162117766948   -0.61704197812255
H          -3.34083514306061   -4.92025732688610   -3.42579865107644
H          -1.66599239492242   -8.59336832416084    0.17088858234623
H          -0.73807913353038   -6.40201309413792   -0.84830960602334
H          -6.03148360672873   -9.25069083014621   -1.80535726971834
H          -7.03426093732245  -11.26776443988340   -0.50258027424234
H          -4.66753233567941  -14.26728753407418    4.22307492548494
H          -3.58706051517430  -12.52430999275806    2.64787777774814
H          -8.44332079509149  -14.95241985078897    3.37655273404356
H          -6.22720965994848  -15.33386179202087    5.46541354597940
H         -12.26865717489778  -18.56174292994325   11.63491109932850
H         -10.04500006369613  -17.80732017597377   10.53168285524510
H         -15.34485479248985  -19.28649972710995    7.99108836274821
H         -17.58200276989727  -19.94392413252896    9.12924552048721
H         -20.70815995111140  -20.97046006747698   12.84500105435109
H         -19.19091097629321  -20.83039076180421   10.76324920834020
H         -19.12023237756212  -19.18334707295608   15.95205059878818
H         -21.37878623053751  -21.06948310510489   15.11290930603992
H         -22.01932549331548  -20.91917162688799   17.42287183260877
H         -21.31343350850720  -18.50235937098931   22.06804294048143
H         -19.39529741283693  -15.32307154730039   18.73376847925735
