128
 SCF done       -225.901187256677          0.000655233687
C          -0.10643546895216   -3.51214775305575   -7.04053788952328
C           0.55618527816056   -2.58330326233896   -7.82643381506604
C           1.94965328689531   -2.53268879575251   -7.76263695706789
C           2.64823500101737   -1.59561037537856   -8.56362358777622
N           3.20554974981756   -0.83802960117763   -9.21642166543949
C           2.67512437741058   -3.39764159251333   -6.92053402716309
C           4.08753854078384   -3.31758152484796   -6.87391160680627
N           5.23041433749474   -3.26675383130869   -6.82321908286830
C           2.00304323103429   -4.33600955725974   -6.13640917204695
C           0.62721451812309   -4.37905233893412   -6.21218160829840
C          -0.29409999875169   -5.29336844754337   -5.49412663050660
O           0.05139278266793   -6.13823773195930   -4.69898157694232
C          -1.64745590885560   -4.96558480747063   -5.99896531347776
C          -1.52766016681737   -3.80975838298076   -6.87783851354349
C          -2.54868870690061   -3.05798496606335   -7.39448986829714
C          -2.35785854754620   -1.92554747069787   -8.21644563888926
N          -2.26829143213289   -1.00172270334569   -8.89099039476647
C          -3.92658939893498   -3.26157608246861   -7.15773836858827
N          -5.06198235038891   -3.33710945458193   -7.00433352168566
C          -2.81239024019554   -5.66792243382178   -5.86234469126501
C          -3.20400430063394   -6.76223563222695   -5.03253033484211
C          -4.39662501198094   -7.42838433783397   -5.39647094795862
C          -4.86896572532915   -8.45282859066696   -4.62283308303952
C          -4.18306079465123   -8.84022333057363   -3.45515454977736
C          -3.01218792307222   -8.19207475200707   -3.08167046247493
C          -2.53038938251596   -7.16598922970602   -3.86601572508260
C          -4.95349104162504   -9.86904013418006   -2.79673141322285
C          -6.10924312991375  -10.12797647106181   -3.55668313830265
C          -6.06946716007885   -9.34488962254558   -4.85003995931017
C          -7.36352471276255   -8.56652895635727   -5.11589120874232
C          -7.69923965170030   -7.59438477683669   -3.99058324637099
C          -5.68925431749102  -10.24375485933781   -6.05514212258485
C          -6.56265576730712  -11.47137416888517   -6.25323351872126
C          -7.11411822586192  -10.92152241582272   -3.04686921592143
C          -6.95558138811396  -11.49513223600280   -1.77954063446762
C          -5.76045930136800  -11.29719390715239   -1.07581940571909
C          -4.75945301171624  -10.49025750888933   -1.57095015026636
C          -8.05975231864333  -12.13268163388894   -1.07236742804369
S          -8.28686908000572  -11.52106300458237    0.53169100523483
C          -9.71909977997519  -12.42924655651261    0.80268168600555
C         -10.03112225476961  -13.18426019782138   -0.32515712019321
C          -9.06026850183195  -13.04808903698511   -1.38867677729452
C          -9.24248212948809  -13.88818283355097   -2.52632822091217
C          -8.25535304611944  -14.00041285579803   -3.64954290680724
F          -6.98053465213426  -13.76289336454393   -3.31375405455244
F          -8.25515320731295  -15.22951724892954   -4.19584808971226
F          -8.55642952400676  -13.16078061493196   -4.66395584171905
C         -10.37022321725982  -14.65651611080943   -2.64919609228649
C         -11.37657392253876  -14.65352713260392   -1.66718020158897
C         -11.20446926591053  -13.94712392885876   -0.51681482051704
C         -10.41990718940448  -12.32327724666857    2.06377327368306
C         -11.07658983442938  -13.43073124885377    2.61830512011328
C         -11.77767960460960  -13.28114579964969    3.79168006751377
C         -11.84021415634942  -12.02911051247106    4.42898825778653
C         -11.14326510462322  -10.94247787934089    3.91830602640193
C         -10.43601776012646  -11.09976814609804    2.74535518136624
C         -12.73581538900643  -12.12798146515157    5.55864644800271
C         -13.24706742523498  -13.43864849772616    5.60391836412151
C         -12.59911659906908  -14.30301359583378    4.54287772121569
C         -13.63454875823422  -14.99299576099568    3.64169792945796
C         -14.49898131545350  -13.99872297961005    2.87415407655694
C         -11.71212721290543  -15.33289850225442    5.28443374613114
C         -10.76274504216466  -16.14117996036807    4.40993145152117
C         -14.18264949376819  -13.78712576158808    6.54214327137261
C         -14.61840419195859  -12.82737094005804    7.47286090279106
C         -14.04658026750104  -11.54752696129252    7.46138637732534
C         -13.12869513810135  -11.18465508336397    6.49833417831216
C         -15.61773903720076  -13.14637022954937    8.45497469752319
C         -16.65489918633646  -14.01348837091994    8.33228192727672
C         -17.35103009103026  -14.53392526813044    9.53762559675312
O         -17.27019996601065  -14.11928588561586   10.66832401915191
C         -18.11879310277030  -15.71036364209493    9.05839275086019
C         -18.85176924523216  -16.61677043178121    9.79467924324986
C         -19.47196447024836  -17.66807012813813    9.11708002569865
C         -19.33887255439517  -17.78769124835409    7.72011136237897
C         -18.60390557738543  -16.85856118281139    6.98186177585794
C         -17.99575878834198  -15.81482285712750    7.65813102425769
C         -17.21521943682304  -14.67867901668114    7.17130754259900
C         -17.23674693972307  -14.19242574454581    5.89251439525198
C         -16.74761604888882  -12.91456158699402    5.54572317003801
N         -16.43633652655009  -11.85787164837780    5.22547257022084
C         -17.81052083442736  -14.86984979160827    4.79742495754252
N         -18.22453789208499  -15.40711932232287    3.87190674602312
C         -19.95883457633858  -18.87199687968892    7.05060831671278
N         -20.44868359150928  -19.74604617570263    6.49721111423098
C         -20.23393652108075  -18.62045225556925    9.83610022168073
N         -20.84503427366736  -19.38239569938585   10.43370260885110
H           0.03617211239128   -1.90795225021878   -8.48673229702908
H           2.54286822233091   -5.01069419057482   -5.48941224597559
H          -3.60637738695807   -5.35660346621380   -6.53318151147131
H          -4.92538428883914   -7.11841469013089   -6.28635075820254
H          -2.48721621945372   -8.47950712486835   -2.18358891007722
H          -1.63045160151024   -6.65596138254883   -3.57031496006010
H          -8.18461276351757   -9.27343677151927   -5.24069798441007
H          -7.25705145152015   -8.01321147121459   -6.05090098054632
H          -7.82616505308207   -8.12343829919354   -3.04832128748478
H          -8.62231539817201   -7.06581790035411   -4.21581640718737
H          -6.90568130937174   -6.86061053489934   -3.86675018366646
H          -4.65586018390446  -10.57383000122305   -5.91820148171057
H          -5.72052752490390   -9.62138535501621   -6.95223277351938
H          -6.43785123947893  -12.15827078835972   -5.42282445300925
H          -6.26565555583596  -11.98474159553813   -7.16480896419889
H          -7.61325754188059  -11.21060824690326   -6.33980300210356
H          -8.03988990238909  -11.05599049191324   -3.58404580432269
H          -5.63832637160455  -11.77125762013413   -0.11273400342140
H          -3.85948785978231  -10.32050860543758   -1.00010243821252
H         -10.49434868248856  -15.28044824464891   -3.52085226105877
H         -12.27210106609958  -15.23064483221923   -1.83250060153114
H         -11.96814215993407  -13.93970827251016    0.24387394690512
H         -11.01356131135900  -14.38853426013250    2.12773398139411
H         -11.17164545552231   -9.98536917046035    4.41579301638217
H          -9.90798841156177  -10.25976795295120    2.31786969188528
H         -14.27169846955020  -15.62658515573376    4.26318242475832
H         -13.12020597775655  -15.64077811554417    2.93070419496846
H         -14.96825816256242  -13.28724648949188    3.54939072341027
H         -15.28125875877684  -14.52339528105825    2.33052175669919
H         -13.90094883082653  -13.43603295453797    2.16099818971282
H         -12.37528331167465  -16.01633829661767    5.81983834383403
H         -11.12285336822669  -14.79307847102101    6.03051687354086
H         -11.29705982758081  -16.68361870699788    3.63455533785646
H         -10.23986936575863  -16.86834691091057    5.02718887056703
H         -10.02047714950359  -15.49803054709892    3.94530552751712
H         -14.56611482076415  -14.79637092752795    6.59652919013411
H         -14.37582628735697  -10.82518350917472    8.19313064121809
H         -12.72455946284772  -10.18447739362753    6.47742583791921
H         -15.50871680515021  -12.68523678499960    9.43148552011177
H         -18.94416694617912  -16.51520777975914   10.86532446497266
H         -18.51926804536580  -16.97844488689308    5.91298022476768
