113
 SCF done       -228.127911479079          0.000965009905
C          -5.83701096528363   -1.69766986860860   -5.36255710371759
C          -6.04691725426886   -0.80774639336740   -6.40212483393167
C          -7.02176560567431   -1.11392517327690   -7.35472666456506
C          -7.25279814664744   -0.21397302672355   -8.42447080495781
N          -7.43208912758918    0.51820244601649   -9.28606570532863
C          -7.77905297394836   -2.29746058064273   -7.27157933284646
C          -8.76374956609636   -2.57854642303218   -8.24867335653728
N          -9.56734291360432   -2.82552165127066   -9.02633556061181
C          -7.56206274209593   -3.19401604360693   -6.22350119318146
C          -6.59850673729089   -2.87954385578472   -5.29007751184248
C          -6.18833342948038   -3.65136101472032   -4.09620445901392
O          -6.64284941976738   -4.72704634458227   -3.75105773813421
C          -5.14875268590273   -2.85727617542631   -3.44118954430821
C          -4.91383465331983   -1.66285972229801   -4.22498709264863
C          -4.00240733303920   -0.66663216955484   -3.98605945461052
C          -3.83873583459272    0.47134410948933   -4.80504284333333
N          -3.65795925663834    1.41801389742456   -5.42800402800023
C          -3.09345174274626   -0.62186683059932   -2.90755998674654
N          -2.32168578081986   -0.51086754107993   -2.06456181855907
C          -4.52269223035713   -3.18027425354185   -2.25896527899276
C          -4.68248932245184   -4.28787731348382   -1.42190036996263
S          -5.73826655290197   -5.66106559449555   -1.65870558484075
C          -5.20679729172179   -6.36580815647167   -0.16874909576204
C          -4.26159605138509   -5.57031839597581    0.47668317495835
C          -3.96962855272545   -4.42231636057138   -0.22274963380142
C          -5.71839143557579   -7.60213214267575    0.28662069258010
C          -6.61459058619408   -8.44238550721664   -0.35092865706442
C          -6.91402927180155   -9.58714146717683    0.37646937452666
C          -6.26003678818968   -9.65158381564527    1.59495391079846
S          -5.24459533619104   -8.25981800988244    1.83019352675858
C          -6.34825923303950  -10.65680527859537    2.58690939701500
S          -7.30845499970513  -12.08717321073681    2.35926468090428
C          -6.88975290987478  -12.68069812780957    3.94453727593874
C          -6.04161356261780  -11.78872413865953    4.58750549100275
C          -5.73829514376559  -10.66730155161703    3.83158110345001
C          -7.40732557943644  -13.91697461216353    4.39443285433361
C          -7.20451640033085  -14.40372763386950    5.64872067240997
C          -7.68898262780430  -15.63886496299923    6.14820283131831
C          -7.44846535896986  -15.97978876122299    7.50650601926367
C          -7.90037399125269  -17.21486680733326    8.10140644917458
N          -7.64565239987684  -17.45093332945891    9.39699099660903
C          -6.98833083249205  -16.56699506836584   10.10621218916955
C          -6.52778230740367  -15.34911592074510    9.51175878577230
N          -6.76836858122115  -15.09360985492289    8.24982745548165
C          -5.80472838676965  -14.40442482073284   10.28146138151295
N          -5.22251076230349  -13.65864208064722   10.92741278530440
C          -6.73934943287050  -16.83601188565043   11.47497562530175
N          -6.52585729276655  -17.02890953015195   12.58375173204849
C          -8.60430661605037  -18.18745641395118    7.34562226559358
C          -8.83741914900029  -17.84501014754959    5.99421471679994
C          -8.40412630073717  -16.60332219365023    5.40211167815050
N          -8.75575264378735  -16.52986932457137    4.11683366466082
S          -9.54019756748578  -17.86601487683012    3.69859340673964
N          -9.48089961782584  -18.61432073051923    5.11673863285253
C          -9.05429936532666  -19.43310683336210    7.85841837514119
S          -9.83595507942844  -20.58300604347559    6.80790197813326
C         -10.01100547532789  -21.71899687516164    8.11115486601451
C          -9.49497366208568  -21.20511351284530    9.29318482239929
C          -8.96153591931138  -19.93593903904713    9.15065519116064
C         -10.59541755540006  -22.99408341638676    7.91863179953773
C         -10.80922188917618  -23.97915002889307    8.87022274362025
C         -11.37883707596589  -25.13454777015108    8.35308647461946
C         -11.61762157143925  -25.06860979543641    6.98998762107397
S         -11.12649641750523  -23.52622476349479    6.35218040680957
C         -12.16109205155142  -26.08092081292704    6.16009770385301
S         -12.44867697572254  -25.82414343067568    4.47075919788443
C         -13.05644589673263  -27.44940114513318    4.27089766628585
C         -12.99130595798108  -28.13727525522343    5.47566520779484
C         -12.50140400048678  -27.37607678026958    6.52587668623791
C         -13.46631065289114  -27.88463280754444    2.99186586302695
C         -14.17943520579814  -29.01486037873826    2.71465250982819
C         -14.88454446218377  -29.79009923398768    3.65617628143050
C         -15.38788061410489  -31.05063605019289    3.47673033629455
C         -16.47256026140761  -31.55673233994762    4.34576254984634
O         -16.88072089786806  -31.06473222621993    5.37308340255550
C         -16.97798655173231  -32.77388606760467    3.66332529095073
C         -18.04665224858643  -33.57282376150548    4.00767137387783
C         -18.34724643766149  -34.66159315987112    3.18635827083499
C         -17.57006758612885  -34.91970858798918    2.04130413077513
C         -16.48362500213728  -34.10845704423915    1.70602647692196
C         -16.18843432840559  -33.03281854012712    2.52489118427275
C         -15.11328445176875  -32.03989529656175    2.46439404499153
C         -13.96085967861662  -32.15870857870896    1.72987846153880
C         -12.81713378863039  -31.36182866460145    1.94759031448614
N         -11.84508106486238  -30.78264098342011    2.13945998170699
C         -13.74175259140316  -33.16215555330545    0.76384151924454
N         -13.52851711028199  -33.94748237077374   -0.04545944652155
C         -17.89554883847226  -36.02286129672602    1.21388027028568
N         -18.15269372645987  -36.91154742944241    0.53939404818282
C         -19.43850568296246  -35.50531932818535    3.50417078686793
N         -20.32600342666320  -36.17548237940294    3.77757556968928
H          -5.48923634266584    0.10963321552227   -6.50092246855144
H          -8.13334597552988   -4.10647754050372   -6.14483541837108
H          -3.79086259050841   -2.47296052300155   -1.88822570172200
H          -3.81711200007181   -5.84390899491183    1.41750315003961
H          -3.26342690339477   -3.67845696626313    0.10211109737489
H          -7.02621367701610   -8.21118112392841   -1.31722302487647
H          -7.58862933186231  -10.35720747464921    0.04685915781349
H          -5.65425901738208  -11.95909486653898    5.57502162788165
H          -5.09770304443554   -9.86837285296526    4.16163511686388
H          -8.00003230321049  -14.48956535700483    3.69544883068465
H          -6.63983799620970  -13.82521853109075    6.36534771961317
H          -9.50286727000194  -21.74322921056071   10.22325708167815
H          -8.51266809663497  -19.37808026839028    9.95042121591892
H         -10.55513727096896  -23.85443866211356    9.90656632105511
H         -11.61366861980251  -25.99832233834373    8.94735340185367
H         -13.23606679244960  -29.17915886183359    5.56809935498333
H         -12.37780324330746  -27.75128070336216    7.52506078050180
H         -13.13866178725629  -27.27411341480517    2.16104882950163
H         -14.26669112203309  -29.30262037222271    1.67486335919911
H         -15.17793174637459  -29.30662911792189    4.58223565441458
H         -18.63509501565544  -33.36249611235904    4.88782323064436
H         -15.91054507137327  -34.33292769853006    0.82016161287704
