126
 SCF done       -220.413018064574          0.000559901506
C           0.59163756301191   -3.92071965282517   -6.63042313309397
C           1.63566196976334   -3.41753368559362   -7.39013421383318
C           2.38947951465265   -4.30815476988355   -8.15609216645277
C           3.45834687701028   -3.81479243159591   -8.94521992788253
N           4.32027970344206   -3.40865130051031   -9.57963049484843
C           2.10693175128857   -5.68804221906529   -8.16305629660320
C           2.89378564730979   -6.56786393382370   -8.94460207908955
N           3.51669676235006   -7.29729015515183   -9.57002878208314
C           1.04978127437403   -6.18852015102411   -7.40255279057776
C           0.31080438727279   -5.29807414317582   -6.65272191236964
C          -0.85317015927802   -5.59261059955035   -5.78404958532894
O          -1.31912315360854   -6.69558771049774   -5.60265199266900
C          -1.30740398209876   -4.27653468437364   -5.27266518746850
C          -0.36044802981888   -3.26830310599348   -5.73464966757621
C          -0.29720789482015   -1.95944501911696   -5.34164753616889
C           0.66777505284319   -1.03986061204346   -5.80965577820816
N           1.42218206667715   -0.24850490671468   -6.15676442830328
C          -1.14314132890442   -1.34101507216136   -4.39333207861111
N          -1.76657314912177   -0.76382276924456   -3.62147628863686
C          -2.48174845903674   -3.96420146738537   -4.64949797169857
C          -3.50139666668199   -4.78338040893217   -4.06901234190411
C          -3.29032873728514   -6.10363946711738   -3.63515263251435
C          -4.32651615870502   -6.80474888533705   -3.06947026973882
C          -5.60320980685524   -6.22387410403176   -2.95888465905433
C          -5.82178427542352   -4.90935158780340   -3.35882959381880
C          -4.77048250466947   -4.19649948562923   -3.88677989267985
C          -6.50876208972225   -7.20215061427079   -2.40336993682983
C          -5.79346747798904   -8.39220145677393   -2.17326852907884
C          -4.34192300570930   -8.23671808363552   -2.57634931187288
C          -3.95536152806175   -9.14245381377274   -3.76625154145692
C          -3.94714848416253  -10.64102019327211   -3.49441907811169
C          -3.47411700565236   -8.44686907938254   -1.31745063764132
C          -1.97701108069756   -8.22968685973558   -1.49459019236871
C          -6.42514115660499   -9.46702109138093   -1.59700953684032
C          -7.78719594301178   -9.38134624258919   -1.27127802297118
C          -8.49466994936941   -8.20357576007234   -1.53741518023622
C          -7.85899635981663   -7.11250987421808   -2.09369593293476
C          -8.43404279876559  -10.53242996806152   -0.68422943339812
S          -7.82078134298325  -12.12311753287554   -1.08200511286357
C          -9.00108947765257  -12.93370538722607   -0.08232130540110
C          -9.80802771677929  -11.99113839936177    0.52150519944218
C          -9.50070878147038  -10.64681962513479    0.18218601379910
C         -10.31761045191477   -9.65562221034400    0.87191909223125
O         -10.28907276256552   -8.46043604331444    0.82805408104136
S         -11.49621519925346  -10.54051376921758    1.92808860546275
C         -10.89527832781615  -12.18186919285542    1.46047497963071
O         -11.35614107283173  -13.19736247955844    1.89823774570841
C          -9.07544951391141  -14.34441619351825    0.06049500020210
C          -8.30708634886679  -15.21411248887521   -0.62652020517914
C          -8.35482755232657  -16.65142752455190   -0.52884240851112
C          -7.70484455787978  -17.41034536058713   -1.51646477065992
C          -7.75333136064933  -18.78257055574251   -1.46783006293900
C          -8.46450119075803  -19.42518534078359   -0.43717967798692
C          -9.09096254744634  -18.68682538552504    0.55878144137207
C          -9.03051984454386  -17.31065925720226    0.50839835319664
C          -8.42942587112062  -20.85058459016644   -0.66850757850415
C          -7.71228872994149  -21.08967674989853   -1.85521941294330
C          -7.16579718061614  -19.79765935690351   -2.42167911596502
C          -7.61609133127318  -19.55739092822188   -3.87050522309182
C          -9.13316292707134  -19.58229634608690   -4.01954329818928
C          -5.62360186081521  -19.88140052781710   -2.30951198158898
C          -4.86717534766066  -18.58867766455356   -2.58170557298311
C          -7.53617692226485  -22.36839279396823   -2.31609741888513
C          -8.07951013258284  -23.44410235742382   -1.59239366052872
C          -8.82883437544318  -23.18615756144283   -0.43412959468572
C          -8.99356364447289  -21.90304014492223    0.04077164683673
C          -7.92229858646596  -24.80255766078449   -2.02619259038910
C          -6.93446747658398  -25.35816012373926   -2.77401794434552
C          -7.16855698297042  -26.67557568560832   -3.42430912162383
O          -8.06613733482798  -27.45131405993455   -3.20156533272185
C          -6.09729654518943  -26.79959152320655   -4.44160098235962
C          -5.93051808234693  -27.77781407666016   -5.39879161113969
C          -4.85344380740771  -27.66081420614225   -6.27895653862915
C          -3.97492544578721  -26.56444649051635   -6.18066845374574
C          -4.14621648154597  -25.58538288377105   -5.20040800387080
C          -5.21172896585584  -25.70979231850083   -4.32506087834173
C          -5.62940345543881  -24.88282121349657   -3.19179946640819
C          -4.81964246720716  -24.01048736155645   -2.51708616676313
C          -5.14342422391173  -23.43494232112011   -1.26902095988578
N          -5.31472029914188  -22.98114154281538   -0.22968413035380
C          -3.53378934570321  -23.62949887599957   -2.95493408863656
N          -2.49948363271272  -23.26190482239564   -3.28885299268171
C          -2.89989328221805  -26.44967289389790   -7.09701575630053
N          -2.03277938027668  -26.34430664662980   -7.83683202340584
C          -4.64725949557016  -28.64276127964753   -7.27798830248228
N          -4.49762762674999  -29.44582765198114   -8.08029802740477
H           1.87997828496668   -2.36766963168458   -7.41459971621702
H           0.81529104038939   -7.24223818070793   -7.39993664802736
H          -2.71686545306238   -2.90600760283896   -4.60853472214122
H          -2.32082924448013   -6.55232473004723   -3.74891027605347
H          -6.79613772959699   -4.45721928748379   -3.25491076042296
H          -4.92113804023776   -3.17258948877679   -4.19685850194815
H          -2.96902353479315   -8.83651690526194   -4.11655155968842
H          -4.66056095944310   -8.93574155677715   -4.57591530839198
H          -3.28316679226895  -10.89396615335134   -2.67235003312390
H          -3.59376400849395  -11.16053179169943   -4.38250229215349
H          -4.94549597478682  -11.00646741116557   -3.26964487201407
H          -3.64673725847988   -9.46219759006425   -0.95733066788343
H          -3.84083874245524   -7.76386671423462   -0.54613469039819
H          -1.58069290148000   -8.83157571541443   -2.30747396546965
H          -1.46322751117152   -8.51697751714133   -0.57942557883711
H          -1.75379195942444   -7.18421786794794   -1.68730868941041
H          -5.88762501674619  -10.37297131664621   -1.36095784591187
H          -9.54395658505554   -8.14666117253558   -1.30331661551667
H          -8.40848833292981   -6.20300849811402   -2.28030448521806
H          -9.82977775696051  -14.68073200844955    0.75772538092491
H          -7.60051457950407  -14.81360512129823   -1.34577570341323
H          -7.20032565317889  -16.89806546477531   -2.32205356822499
H          -9.62438321856169  -19.18162315010161    1.35584858732035
H          -9.50962817005306  -16.73230955639743    1.28232211960229
H          -7.17458110786452  -20.32542787220055   -4.50932628479916
H          -7.24078444221810  -18.58980882754152   -4.20533816910572
H          -9.53599000889507  -20.54588090214129   -3.71469580580998
H          -9.41058882810007  -19.40645659621111   -5.05617898679568
H          -9.59217708469074  -18.81078477048687   -3.40522920030835
H          -5.28138921776756  -20.64628410831040   -3.01129777171773
H          -5.37719397180055  -20.22816786662762   -1.30256120679273
H          -5.09936104261475  -18.19086381691723   -3.56630471897617
H          -3.79866982802151  -18.78780464175774   -2.54310395671357
H          -5.09783245865272  -17.83864760815021   -1.83027127969806
H          -7.02175782481422  -22.55390298366741   -3.24804616861431
H          -9.25008760721007  -24.02004221769978    0.10736001628001
H          -9.55245690370550  -21.72129149491382    0.94566597309245
H          -8.73020456576366  -25.48208284195385   -1.77040696033309
H          -6.61494283700218  -28.60980394705564   -5.46568892286829
H          -3.45680426633274  -24.75688030068546   -5.15540949561329
