131
 SCF done       -225.808769540090          0.000955203088
C          -3.32076472062227   -1.79862547386899   -8.98642880762894
C          -2.76040768953554   -0.96583228435263   -9.94181563953906
C          -1.38653773121651   -1.04958933159047  -10.17344297458034
C          -0.79299892099491   -0.20917109870487  -11.14799707085478
N          -0.31976452789612    0.47283044709439  -11.93626456210032
C          -0.57820387968717   -1.95544732593360   -9.45940886659781
C           0.81340156273633   -2.01318233544107   -9.71201273145942
N           1.94080355852063   -2.07799136851835   -9.90226305440548
C          -1.14846670138182   -2.79770901393744   -8.50424265346391
C          -2.50623285294038   -2.70475051478970   -8.28395889163250
C          -3.32795428496020   -3.49119051111533   -7.33237976935212
O          -2.91568020314461   -4.37360140801845   -6.61465785484732
C          -4.71965332901424   -3.01773502141670   -7.53258513805522
C          -4.69675382397191   -1.94618372473487   -8.51612196839827
C          -5.74784977371261   -1.15332593093782   -8.89027683806336
C          -5.65465736889608   -0.10997029869348   -9.83734170763588
N          -5.64036841899049    0.74509697810814  -10.60223706563575
C          -7.06050873247591   -1.23760078331335   -8.37505429674831
N          -8.14550307182035   -1.22753091731559   -8.00037184432363
C          -5.85459085348998   -3.60635312147510   -7.05712540465183
C          -6.00553434417024   -4.59889578952074   -6.03619290337500
C          -7.12297732657041   -5.45453386634403   -6.12179084904710
C          -7.29941445791959   -6.43359242847276   -5.18075463261981
C          -6.39649333521220   -6.56169637183521   -4.10674245636700
C          -5.32710731497113   -5.68529605681943   -3.97858331023664
C          -5.13501970936580   -4.71659244409016   -4.94085428634124
C          -6.82425099035292   -7.66809939336490   -3.27868657220880
C          -7.99076996118351   -8.21798971448823   -3.83804562161113
C          -8.38617362335356   -7.47815808143567   -5.09192230972947
C          -9.77935114705938   -6.83664629793555   -4.94783590157413
C          -9.89241167964072   -5.93206121555852   -3.72705213524450
C          -8.36880633712806   -8.40859146801515   -6.31974503540340
C          -7.02088915608803   -9.08882618754820   -6.52952579026515
C          -8.61725049545781   -9.28577235882361   -3.24198740217697
C          -8.06643397217795   -9.83477404669253   -2.08213512468953
C          -6.91080817561460   -9.28050227252574   -1.52682352184066
C          -6.28524160200478   -8.19690161061872   -2.11527033233913
C          -8.75902782233926  -10.93599729160094   -1.39985458474234
C          -8.19104518230903  -12.10754721358246   -0.94511845839849
O          -6.92480984757234  -12.51453069897129   -1.24687106353642
C          -6.34302903879193  -12.15546855100164   -2.48080050950892
C          -8.93194177309158  -13.06623799063801   -0.14900681227018
O          -8.33393616354843  -14.18293046653816    0.33886815196421
C          -7.01191198547426  -14.13356186203806    0.84277809172455
C         -10.28537501273456  -12.92513452251340    0.10499193261846
C         -10.89434308479265  -11.74889590215486   -0.39558744357025
C         -10.13897856409128  -10.77059933945694   -1.13203684408930
N         -10.96168541038617   -9.79107025009248   -1.45087065208827
O         -12.15133685913481  -10.13168653487061   -0.95250715348676
N         -12.13322678797503  -11.30324496472926   -0.31574597749245
C         -11.09994035672813  -13.91682979009695    0.81123611995823
C         -12.12238043521079  -13.48053322697049    1.66105848658142
C         -12.93361390638528  -14.40686674156385    2.27299915187783
C         -12.76866828641019  -15.77775587165207    2.00645000663616
C         -11.74764236402300  -16.21701913594014    1.17638562733496
C         -10.91302356703931  -15.28392255073018    0.59330806709213
C         -13.83289339928029  -16.50491102502010    2.65966592304791
C         -14.64989846776230  -15.58413650421957    3.34058065187668
C         -14.09751600415288  -14.18182601199591    3.20934643995985
C         -13.62827542104153  -13.74196545604066    4.61734783380099
C         -12.83262409041000  -12.44474492618631    4.67078869157211
C         -15.13138357055632  -13.20816877108193    2.62398056415586
C         -15.65418139788436  -13.66078720979451    1.26567829653738
C         -15.75804804127972  -16.01124683391392    4.02662291426023
C         -16.11394579499132  -17.36924388691586    3.98150316676787
C         -15.28083427650640  -18.27938386552583    3.31160462396618
C         -14.13672199217672  -17.86075875617569    2.66927034817159
C         -17.30215730649229  -17.80538123335951    4.65798252712553
C         -18.12113331879262  -18.83971137000558    4.33622981906117
C         -19.05621824170707  -19.39343766672235    5.34890592062849
O         -19.35442304155113  -18.90902533409094    6.41428471019910
C         -19.49806266209895  -20.69627340067801    4.79350057187615
C         -20.27802545105404  -21.66503991135630    5.38852924661568
C         -20.53378584406760  -22.83610574456130    4.67302570287682
C         -19.99593903596095  -23.00977393939186    3.38299043866177
C         -19.21695864579716  -22.01784448075298    2.78475341584141
C         -18.97426881790220  -20.85453838402913    3.49494342051568
C         -18.23934654698000  -19.64206753352504    3.13398654526196
C         -17.96698626936855  -19.23915737928544    1.85500377871408
C         -17.51725967291092  -17.94364809417705    1.52017950717386
N         -17.22621871680082  -16.88662815540222    1.18222439236418
C         -18.19582924147257  -20.03817577368942    0.71523410318793
N         -18.34992446252436  -20.66420440581729   -0.23385994100292
C         -20.24498782086262  -24.21568848484098    2.68172504585808
N         -20.43720550131585  -25.18732426580406    2.10779302978537
C         -21.33089620511872  -23.85546156175500    5.24728668844369
N         -21.97574071945428  -24.67040682447397    5.72821832099039
H          -3.34673339587358   -0.26328698717061  -10.51214521844916
H          -0.54550830688374   -3.50171970882871   -7.95094630238921
H          -6.78435055165493   -3.32773662005751   -7.54080693169923
H          -7.81118904892050   -5.34575057699468   -6.94770395991104
H          -4.65330201479193   -5.75733046680957   -3.13871108796574
H          -4.32275905667019   -4.01818795063692   -4.83236338243274
H         -10.52252630550683   -7.63234609556696   -4.87347130207113
H          -9.99271178646988   -6.26043358672363   -5.85039246824905
H          -9.73747046325976   -6.50084219645872   -2.81325449799535
H         -10.88289449879582   -5.48598992877293   -3.68780151048120
H          -9.15653512362221   -5.13161597719538   -3.76783224320627
H          -8.62161964677672   -7.82322303443171   -7.20591456055533
H          -9.14221632001939   -9.16819168791782   -6.19071514774629
H          -6.23479043863134   -8.35208779039850   -6.68009185494432
H          -7.05967575598632   -9.73270335517091   -7.40498261628276
H          -6.75747901876241   -9.69731232726754   -5.66672580345753
H          -9.51969886812869   -9.70765446563432   -3.65555593687397
H          -6.51978272861203   -9.69330526164302   -0.60734717485319
H          -5.39777727873083   -7.77113864833411   -1.67196435779070
H          -5.67994944344160  -12.98054395589831   -2.74495624822659
H          -5.75787614679745  -11.23584137182653   -2.39934433275165
H          -7.09852641385604  -12.03098551255161   -3.25924457286467
H          -6.28295826461983  -14.39990098224366    0.07520680382526
H          -6.97966268434891  -14.87194643450470    1.64523859659507
H          -6.76799968059363  -13.14967950574984    1.24567802460899
H         -12.27497770216048  -12.42400068091576    1.80554107123077
H         -11.61824124454869  -17.26878485158893    0.96977315560487
H         -10.13042901219706  -15.60843610451416   -0.07270130603547
H         -13.01451171292032  -14.54548736797287    5.03412355388021
H         -14.51503118141505  -13.64373670604321    5.24742285196648
H         -11.89613949169153  -12.54246640488606    4.12857042278475
H         -12.60115348719029  -12.20754396430715    5.70716609030830
H         -13.39729392385233  -11.61558542706039    4.25377386327392
H         -14.67178189555582  -12.22537057622112    2.51582123653191
H         -15.96332938272089  -13.11709083654417    3.32563910648307
H         -14.84299192285901  -13.70718326825316    0.54289196183630
H         -16.39526689847735  -12.95368325633995    0.90105825551321
H         -16.11746863469009  -14.64188859321008    1.33053217666700
H         -16.39627608541074  -15.31620138559984    4.55158449901944
H         -15.52487687508008  -19.33217379844659    3.33834622590344
H         -13.49626841960481  -18.57362608874666    2.17247115136452
H         -17.55761723215779  -17.28326987135414    5.57517914641388
H         -20.67879076351607  -21.52179088988983    6.38051246421793
H         -18.81677907446174  -22.18325276043093    1.79673464934860
