115
 SCF done       -219.511149204793          0.000302296931
C          -3.46917056040007   -4.25152857932413   -8.07757115348216
C          -2.91373519696359   -3.41766446965153   -9.03302160984795
C          -1.53539048556959   -3.19238059986449   -9.00062858822358
C          -0.94728523561333   -2.34472579229250   -9.97172807536699
N          -0.47814369755393   -1.65930179024934  -10.75968004489264
C          -0.71915228237153   -3.79214972783854   -8.02325597374473
C           0.67431633675598   -3.54477057486805   -8.01494256271852
N           1.80404633819128   -3.35866814307437   -7.98983094119022
C          -1.28310881038929   -4.63303545152915   -7.06190191970814
C          -2.64326200823671   -4.84826478591334   -7.10643872780065
C          -3.46991494095645   -5.69285523441231   -6.21577024713391
O          -3.06199517406721   -6.33809351846210   -5.26681712482413
C          -4.83977542862040   -5.58593369866972   -6.71648466304454
C          -4.85098234622732   -4.68229490936140   -7.84697812945210
C          -5.93287021128098   -4.26515116349958   -8.57946541962093
C          -5.85569162480740   -3.36836370116476   -9.66647978731404
N          -5.86008395356255   -2.64435714512010  -10.55699847372481
C          -7.27330707701068   -4.64784767456142   -8.36123446862761
N          -8.38744337175174   -4.90399411548944   -8.25033896356346
C          -5.93108649964436   -6.25758949392605   -6.21172446168878
C          -6.03146910689308   -7.14182435177754   -5.13522989594067
S          -4.75666423937379   -7.64571158172980   -4.04936913543207
C          -5.86123134352579   -8.64216426357380   -3.16341439386356
C          -7.15001881490314   -8.58945722910568   -3.69137238289159
C          -7.24149770532939   -7.75459635892178   -4.78114704982406
C          -5.43124653512045   -9.39154387455939   -2.04497879364758
C          -4.16811770992312   -9.41893224306480   -1.48153476003501
C          -4.07160787483283  -10.25468529770925   -0.37632027551280
C          -5.25954142789714  -10.89547537663137   -0.06579020373867
S          -6.51716351284020  -10.44052937816721   -1.17306467941389
C          -5.49563469746442  -11.81060095915680    0.99324354934064
S          -7.01579374780433  -12.63289131706112    1.17243422783742
C          -6.45722303852143  -13.47128250143665    2.59210061319123
C          -5.15538153856232  -13.10875304641420    2.88599155656365
C          -4.61858564651692  -12.18585455521785    1.99497609268627
C          -7.32097540747913  -14.39284227322023    3.24753498759221
C          -7.00695142117161  -15.01726686684301    4.40714990243530
C          -7.76992275793711  -15.98426604300526    5.11793324742111
S          -7.26856164066637  -16.32828592851882    6.75219558437980
C          -8.51638524236815  -17.52344494523368    6.95009286539221
C          -9.27486741406853  -17.63410791984117    5.79638829475648
C          -8.85204056372385  -16.77516362774607    4.76480793793235
C          -9.49627743190777  -16.77510391631855    3.41331944835401
C         -10.33984653809001  -18.04081203935351    3.20105771251626
C         -11.10958309299467  -17.89950896937773    1.98516979180276
N         -11.71862043683178  -17.74735736773522    1.03114808628572
C         -11.27009258011762  -18.24483808217917    4.41320143264913
C         -12.20195806966548  -19.32292762924571    4.16744885209439
N         -12.91468514033025  -20.19695842762210    3.98795713837099
C         -10.42740286669664  -18.57687160917434    5.65175106260844
C          -8.59777169756238  -18.22789420277418    8.18146289611832
S          -9.56936520995450  -19.65791827902963    8.40602391609733
C          -9.01387076972583  -19.83521424448455   10.04573923690403
C          -8.13829675971352  -18.82297126210693   10.37851041448477
C          -7.90118403914503  -17.93144048993173    9.33677663285397
C          -9.43310733753384  -20.92738927829247   10.84742582544916
C         -10.22388031728141  -22.00053922195699   10.48752978990072
C         -10.39634896056044  -22.92782243030289   11.51128334752422
C          -9.74951465591920  -22.58178679871516   12.68106661785749
S          -8.90975698497470  -21.06505313574175   12.50037935046138
C          -9.69264223421738  -23.29721501423165   13.90155463090771
S         -10.36837261976366  -24.88583662668151   14.05402464365350
C          -9.85383308034373  -24.99713129280829   15.71925173936739
C          -9.20351360305267  -23.83315936487800   16.10426258804496
C          -9.10896173659562  -22.89154769708932   15.09242480457676
C         -10.06464273712279  -26.19184542392540   16.43501342749957
C          -9.78740940235908  -26.37654912403735   17.75865701297476
C          -9.97768639024401  -27.58085137393814   18.46326108442450
C         -10.07428693197998  -28.87278261975811   18.01341009415965
C         -10.68747353000843  -29.88294257673762   18.91011707530701
O         -10.97005451472878  -29.74923928650952   20.07844742588422
C         -10.92226758774155  -31.07373982294523   18.05863725931332
C         -11.56679304580110  -32.24909254276040   18.37846998273253
C         -11.69350966001249  -33.22161771976995   17.38441189081734
C         -11.17826199873701  -32.98622632593509   16.09568626503163
C         -10.51774350469196  -31.79501506571523   15.78639707838480
C         -10.38462568736873  -30.83973839273273   16.77859975739586
C          -9.72833339664868  -29.52801353706267   16.77523188788853
C          -8.76997857241083  -29.15255734272317   15.86735479604194
C          -7.96268635107473  -28.00532393939641   15.99431451233953
N          -7.25673355741915  -27.10239922939711   16.05622467318003
C          -8.41785531882647  -29.90945549425292   14.73115759629350
N          -8.10558941823019  -30.47518525470725   13.78250900050102
C         -11.33470292906125  -33.97392574998394   15.09202784582523
N         -11.46005807668516  -34.76432228431504   14.27326010673903
C         -12.34755868205607  -34.44381836016564   17.67076847329976
N         -12.88001738300698  -35.42619281165260   17.92153523552440
H          -3.50364257668824   -2.94014776386499   -9.79875295222353
H          -0.67203240380547   -5.10244993875895   -6.30600523667313
H          -6.87553930616704   -6.09751749680923   -6.71751884796625
H          -7.97166257925064   -9.14524661262745   -3.27467558260045
H          -8.14935734616229   -7.57162059591591   -5.32887019241810
H          -3.35286325019752   -8.83936905736318   -1.87682448859706
H          -3.16612413397572  -10.40022321983826    0.18326368465472
H          -4.60628919819026  -13.50893428733600    3.71850390352784
H          -3.62073942879287  -11.79487058966083    2.07398447373822
H          -8.27396192925637  -14.55397166584435    2.76899153488077
H          -6.07515038743931  -14.75493972058270    4.89027601906964
H          -8.72856936959799  -16.71701978471376    2.63747752943867
H         -10.14229926488333  -15.89556783620766    3.31048578403162
H          -9.68737918090162  -18.91675691566083    3.09843060768909
H         -11.84372263322281  -17.32493020153504    4.58222591763643
H         -10.05196355963694  -19.60393375493837    5.57314367785883
H         -11.05971809014452  -18.53682685063204    6.54302359799089
H          -7.68406951408280  -18.75108193527018   11.35066970618704
H          -7.24122529960965  -17.08519981560082    9.40824631716007
H         -10.64879128995486  -22.09960020172010    9.50432937156222
H         -10.97217102130739  -23.83143944910002   11.41773681343030
H          -8.79435734272336  -23.69226589128317   17.08746595218236
H          -8.63014260834971  -21.93385119831506   15.19653138812350
H         -10.51632368859052  -27.00232530293356   15.87661660121525
H          -9.46917753346292  -25.52690107315954   18.34546296928725
H         -10.13093591877616  -27.48455679432215   19.53467066761294
H         -11.96254076347248  -32.41255926573275   19.36928852149568
H         -10.13985792503994  -31.64694061364893   14.78713386836833
