88
 SCF done       -160.500604263389          0.000191036942
C          -0.16719009831593   -9.05943081988833    0.88149352137311
C           0.68546216422655   -9.81787303916069    1.66789516691247
C           1.95973449915063   -9.31644440668538    1.93101869966474
C           2.79669997490876   -9.98009240818191    2.85848038700060
N           3.44074259088783  -10.47102491176498    3.66937940357664
C           2.40436584893935   -8.10400215970499    1.36529414182954
C           3.71320963816249   -7.65490627837035    1.64604512415317
N           4.77363093246880   -7.29477027787135    1.89131384755081
C           1.53911943426529   -7.34545076606707    0.57277575364939
C           0.25947881390597   -7.81617727129763    0.37597524850954
C          -0.88718665385996   -7.14023838672978   -0.28226659386686
O          -0.84556706275425   -6.19527983833855   -1.03400132287629
C          -2.06760187551015   -7.98682033341206    0.05154308355390
C          -1.56736503411604   -9.26939142488776    0.51649710720138
C          -2.25469502374297  -10.44703179030547    0.60676146841200
C          -1.68280664500184  -11.65048671382127    1.07105789940385
N          -1.25040942505574  -12.64528421876106    1.44517953438975
C          -3.59629367347429  -10.60493736035526    0.19579893533459
N          -4.68183615421763  -10.78511600142406   -0.12803372411277
C          -3.34789232243096   -7.54081019800089    0.03100191668847
C          -3.64207581686728   -6.13341665200743    0.02153181913564
C          -4.59786616077303   -5.45774132956153   -0.65124158223372
C          -4.50278742297575   -4.00633685232633   -0.33925656316419
C          -3.37467039970654   -3.94649354120981    0.63302615023695
C          -2.87244384579498   -5.17766527421679    0.84188584551423
C          -1.81431782161061   -5.59770163820194    1.73170085117252
C          -0.67372476662132   -4.91395191281006    1.93365390083414
C           0.42663417263257   -5.37164092642371    2.71822365499943
N           1.60907413090372   -4.66404278873592    2.74349798764264
C           2.51251788902286   -5.34629586076225    3.49325404308023
C           3.81627918591461   -5.31931010282830    3.98986107581771
C           3.96831598828335   -6.48441902439202    4.73722419759854
N           2.78529301453957   -7.20082146169137    4.72813132642322
C           1.88698854895070   -6.52991759024364    3.94983979991658
C           0.57543056773095   -6.54086221297898    3.47420158633221
C           5.09531212356243   -6.84768182808810    5.53742183647798
C           5.10188716554536   -7.84347182004290    6.43674372937475
C           6.15792058251316   -8.06336560457933    7.41033569881587
C           7.46456096235773   -8.29964334028357    7.20350091885850
C           8.15936785028243   -8.53426375091426    8.50250072322224
C           7.06374025798873   -8.39856704330066    9.49410707043750
C           5.89809333828751   -8.10027080722662    8.85994195507391
C           4.66545310127645   -7.76819110394215    9.50444912689143
C           3.65498576278900   -7.09358948288449    8.89881548426198
C           2.41746908110818   -6.79057689525215    9.49944225222455
C           1.39291278880267   -6.09832578907366    8.91419476868055
C           0.02026540327175   -6.22668169018025    9.46021882369985
O          -0.30301696647710   -6.67871874253113   10.53379522820317
C          -0.87407699295573   -5.73871362483791    8.38135278299644
C          -2.25054424628840   -5.77046638593755    8.32020368056087
C          -2.86912569020487   -5.30701283312079    7.15687836002793
C          -2.09051333924549   -4.83284410204294    6.08306308514140
C          -0.69756104806327   -4.78985261288735    6.16296450893423
C          -0.09031044873811   -5.23712728397923    7.32345058223374
C           1.32243785937576   -5.31063361983158    7.70248567052223
C           2.31039098357369   -4.55801649623219    7.11967083006005
C           3.63689643313429   -4.44651885103655    7.58727257564704
N           4.71688371914241   -4.27377111813137    7.93464442486087
C           2.06503681489463   -3.66228960812209    6.05788930325400
N           1.89508134428958   -2.89816609389256    5.21788231473406
C          -2.72849914857082   -4.39265980559846    4.89851993128515
N          -3.23152353991590   -4.03920703753017    3.93209905986736
C          -4.27958606029494   -5.32528613330986    7.04667708618853
N          -5.42210841780002   -5.34844084656869    6.96874375546952
H           0.38264521088803  -10.75653268583378    2.10539292297758
H           1.85595676493390   -6.40550162937900    0.14892108607490
H          -4.17586433366670   -8.22817478462656    0.14917731480541
H          -5.28494622220352   -5.86808350770561   -1.36849137236427
H          -5.43039066226954   -3.62008464067874    0.09096201149216
H          -4.30317793152834   -3.41629130946894   -1.23741058353563
H          -3.07369407744857   -3.04540454767909    1.13196139562520
H          -1.96086667749709   -6.54553859508517    2.23477223536434
H          -0.53130568111816   -3.97479934703520    1.41641984351987
H           1.73695044730528   -3.75123588826434    2.34110242136723
H           4.56551739558711   -4.56832175245417    3.84749197583118
H           2.68868380605779   -8.13523849411226    5.08650720798065
H          -0.17757296976742   -7.28797188037417    3.63451421703361
H           5.94670201681570   -6.18733410895400    5.46490114911578
H           4.25201190634445   -8.50939418105922    6.53477233472898
H           7.95865606561985   -8.35688977175831    6.25200705910125
H           8.95075370118697   -7.80217425979029    8.68387920632720
H           8.63336535623273   -9.51846861651184    8.54281400866403
H           7.21090007335972   -8.48025025874017   10.55573290368734
H           4.58361854925256   -8.02250535486699   10.55463681994193
H           3.79291163010421   -6.78464699313447    7.87492903345446
H           2.19245581305013   -7.23251205190229   10.46431088814808
H          -2.83398500089680   -6.14757562539363    9.14638231484314
H          -0.13347204615622   -4.43099959021270    5.31787434615313
