152
 SCF done       -241.930229061541          0.000471789722
C          11.20360276238926   -2.61311729075850   -7.93468840313310
C          12.03078298839831   -2.57765110481087   -9.04543894318363
C          12.29355056185157   -1.34327826586602   -9.64119883486093
C          13.12344842428303   -1.28746946416530  -10.78665713943273
N          13.79207962574734   -1.25046449935817  -11.71583928855680
C          11.74598159853996   -0.15031816810890   -9.12640266009638
C          12.03247145631224    1.08662738589496   -9.74755689226782
N          12.24862243350117    2.10062907413745  -10.23566936574092
C          10.91521936245450   -0.19094318526451   -8.00517817663079
C          10.64999237361039   -1.41725589958688   -7.43721568163510
C           9.80250315460451   -1.71797181027886   -6.26269835417426
O           9.33007010652452   -0.88115154528402   -5.51233827279500
C           9.76296150203899   -3.18220390079462   -6.16810647378295
C          10.74738839388653   -3.71521361727073   -7.09388843471152
C          11.25542741065913   -4.99365498393580   -7.14788200935980
C          12.21619568810932   -5.42026757514512   -8.08658086316140
N          12.99065923150483   -5.83643459011390   -8.82553438248704
C          10.96104782309255   -6.03582642558345   -6.24866305006461
N          10.79293188111423   -6.91974151357568   -5.53130261184286
C           8.96441397398650   -4.01996109463631   -5.41867205962323
N           7.91229313517487   -3.80698335549789   -4.62779084326904
C           7.18943847086458   -2.55048508746115   -4.57827618969287
C           6.33137638370524   -2.34686831259758   -5.82583470033484
C           7.42281264193966   -4.89554864984571   -3.87975678440257
C           6.05964411721150   -5.05778190521673   -3.63296964708472
C           5.61730580305286   -6.14786550256438   -2.91585403499011
C           6.49998861793042   -7.10145934538416   -2.41029789969027
C           7.87864751876987   -6.92789234108966   -2.61686048879787
C           8.30897656388215   -5.83311278800909   -3.35779489197289
C           8.91125636222793   -7.80230737938910   -2.05550042328673
C           8.85748656513719   -8.38951587285282   -0.86795889705957
N           5.99029659635774   -8.23171952945431   -1.74837874707740
C           6.19525271877595   -9.51880441899951   -2.38182147275074
C           5.19837064747157   -9.75145385152350   -3.51770815088006
C           5.04047447922236   -8.10965483363725   -0.77376744424266
C           4.79848070067121   -6.98666379465168   -0.06750749063940
C           3.82190512693058   -6.82341275686647    0.97678495461244
C           2.89620062325659   -7.78337469069462    1.32228097063651
C           1.95741357870872   -7.54677185359708    2.34721439821671
C           0.93728364127257   -8.32164018416329    2.88585564136902
C           0.54561824651910   -9.73984849858187    2.62927182541639
C           0.53697140265245  -10.15312349263129    1.15125656909436
N          -0.06214880996790   -9.11403582772864    0.33401869185850
C           1.44275892681994  -10.69931623795859    3.46853254588980
N           2.86454563366385  -10.61386359470636    3.23919427755480
C           0.30756832567835   -7.53132024904624    3.91974478804912
C          -0.71059068974056   -7.80158984084964    4.75795517654807
C          -1.17060722799685   -6.82088716244312    5.78044337757922
C          -0.45340291372273   -5.50602083990131    5.74551572461566
C           0.56446827291995   -5.24989265572245    4.90464286218009
C           0.98581125740960   -6.23081987486009    3.97600458378600
C           1.98121664339436   -6.25272928103354    3.02344640030959
C           2.93914120813754   -5.28134711025387    2.65242190899535
C           3.82463615756808   -5.56454601072065    1.66789237226360
C          -0.99986992219470   -7.41388833945267    7.16321617456148
C          -1.90671682864978   -7.24999916635582    8.12479191007373
N          -1.78773012776314   -7.62040424710688    9.45272326785681
C          -0.46655287040502   -7.85811310157236   10.00066425563340
C          -0.16793543052819   -9.34768788932438   10.15025304907084
C          -2.91710331742099   -7.80184579425420   10.22939677243497
C          -4.17609108147613   -7.99092190824100    9.63943991528525
C          -5.31253163715626   -8.10148902359996   10.41018399383900
C          -5.24478955327391   -8.07423605178790   11.79677042262457
C          -3.99491169598675   -7.95856908281804   12.41588325160028
C          -2.86218275178430   -7.80972873493478   11.62672418364710
C          -3.82350557403442   -7.98698072637626   13.87288974345682
C          -4.42888187313666   -8.83173967745537   14.69265335519171
N          -6.44282197430117   -8.13754396351088   12.55868165638096
C          -7.30442919762318   -9.28518017016107   12.32040019338546
C          -8.11008678964208   -9.72278876042205   13.53847346724447
C          -6.88345059502077   -7.07355214690619   13.22088138260103
C          -6.24227968024357   -5.85929139027346   13.31815494814830
C          -6.73339211546280   -4.75291283454195   14.00389513033477
C          -7.97353983928905   -4.47023174584359   14.55444384586032
C          -8.01814296059303   -3.42691604750636   15.59675640690559
O          -7.11848810303168   -2.69081028998370   15.94390315011547
C          -9.38667005505907   -3.48770299053786   16.16603233926008
C          -9.91165869123843   -2.79112615790373   17.23100212825041
C         -11.23067089833065   -3.05837401451078   17.60686080841400
C         -11.98171745695137   -4.01924842030768   16.90507214376776
C         -11.44032315262767   -4.70892091172170   15.81644622482557
C         -10.13675113006781   -4.43507434950634   15.44482010856536
C          -9.30147163364009   -4.96720564424665   14.35866600556788
C          -9.82332006173717   -5.62251923243239   13.26052446784212
C          -9.10432707410162   -5.94993701043718   12.10128423646778
N          -8.57247516285712   -6.26712290149303   11.13147438855180
C         -11.16911827522564   -6.01469719618618   13.13524667276868
N         -12.24157268482694   -6.39636777114200   12.97783436137928
C         -13.30889975385601   -4.29853401968827   17.31136443740595
N         -14.38079889232614   -4.53694131070685   17.63700038307872
C         -11.80701460636984   -2.36878491479133   18.69896219138911
N         -12.25385438506244   -1.80011869886119   19.58745721701861
H          12.46920474957450   -3.46754425895524   -9.46782777660054
H          10.48796175688932    0.71248675747533   -7.59701368479649
H           9.19344194861465   -5.07302227324473   -5.52285087321483
H           7.90728179927201   -1.72871614208338   -4.51480087701599
H           6.57333680473100   -2.54587788152268   -3.67830326679431
H           6.95953019664335   -2.30008983862191   -6.71222994331760
H           5.79178018449328   -1.40801096670759   -5.74208701935856
H           5.61402142668200   -3.15430543051195   -5.95710742013055
H           5.33544500682843   -4.36424787053604   -4.02757146086036
H           4.55840511236044   -6.28471318100217   -2.75525306397356
H           9.37261455931611   -5.69859920228429   -3.48602308625401
H           9.80199743988268   -7.89305138067238   -2.66428656347534
H           8.00917991119583   -8.28691572952988   -0.21239941307514
H           9.67862017803914   -8.97993098728997   -0.49951289671709
H           6.09327324962947  -10.30119978392438   -1.62560496375032
H           7.21312833472623   -9.55529559916312   -2.77462930618575
H           4.17678792066155   -9.70953836790838   -3.14567781188466
H           5.36652080404517  -10.72616518343108   -3.96709940845312
H           5.31859686705727   -8.98930752959487   -4.28462702281687
H           4.52368947154821   -9.03116289136672   -0.54712677975202
H           5.39011068735982   -6.10863015351926   -0.29255004944940
H           2.87226564143927   -8.71704756420897    0.78740958473639
H          -0.47698353214443   -9.87004260036007    3.00263612184544
H           0.01487293892997  -11.12565467523538    1.07842770163995
H           1.55434262602601  -10.31043580513353    0.78341675041844
H          -0.99227017990924   -8.89230793024406    0.67251873831793
H          -0.14393062398455   -9.41961419105355   -0.62927031463222
H           1.13200201735619  -11.73037529336791    3.27528500821507
H           1.27128280492688  -10.48255580576761    4.52704792961823
H           3.09268635456823  -10.86884169207836    2.28515491198674
H           3.18762129087755   -9.66363174537477    3.39095516722365
H          -1.22565731526863   -8.75345259239010    4.75367861372913
H          -2.24398942854289   -6.63610149513758    5.62612305478549
H          -0.78727726649306   -4.77396321718597    6.46556257474734
H           1.06770265008905   -4.29363995582377    4.92224114821098
H           2.95105101119811   -4.32610201497538    3.15715167351263
H           4.56279022782565   -4.83149592846738    1.37367780433197
H          -0.05914728215658   -7.91629236980484    7.32355471112013
H          -2.83135753794485   -6.73789655038936    7.89275900494760
H          -0.37339196385367   -7.35848125846948   10.96825960832873
H           0.25918112133007   -7.39328244742500    9.33225137770228
H          -0.88361711872366   -9.81203411788857   10.82493328679453
H           0.83227899086761   -9.48999553328323   10.55011794159788
H          -0.23245328492055   -9.84466816021010    9.18548503648877
H          -4.27250382290950   -8.05949363329079    8.56854384890000
H          -6.27395332683002   -8.19493895077503    9.93018565236386
H          -1.92159257135992   -7.70599337489858   12.14243839534239
H          -3.10101694912131   -7.28267013995223   14.26549517812512
H          -5.11440139632312   -9.58174045625175   14.33636753173501
H          -4.24066732443330   -8.82221549911584   15.75225326685310
H          -6.65658106065115  -10.10304868028112   11.99437967317550
H          -7.99576323204154   -9.04619853755645   11.50163710341782
H          -7.48326912239133   -9.76858426494173   14.42626417331292
H          -8.51862644242482  -10.71267742203869   13.35352736015275
H          -8.94557691962341   -9.05507285160805   13.73225164160305
H          -7.79691926507784   -7.22280747448988   13.77608573465958
H          -5.27152125369749   -5.75071965942986   12.85860619873305
H          -6.00636904167669   -3.97181651028117   14.20917108879969
H          -9.32015554144185   -2.06063614787401   17.76163667682470
H         -12.04783692311535   -5.43920332284785   15.30592607900322
