106
 SCF done       -219.193731072212          0.000506009640
C          -9.52827731244140    1.24693320813124   -0.44667852802304
C         -10.49855347566139    2.20510385762705   -0.68868140848960
C         -10.67835032451101    2.65793013820350   -1.99888060229803
C         -11.66649969244615    3.63605945715653   -2.27089699741638
N         -12.45594206408828    4.43479968245166   -2.49285038860507
C          -9.88899613192043    2.17294034089723   -3.05833598249438
C         -10.07999269345761    2.63601437723934   -4.37965493901444
N         -10.19138622233682    2.98913185504698   -5.46407004228711
C          -8.90899206603567    1.21257737251989   -2.80895648447661
C          -8.76102106875048    0.75785820556987   -1.51658571278355
C          -7.85615542572908   -0.30439374053909   -1.03713077582235
O          -7.15268788269770   -0.96795243975679   -1.78682282492900
C          -8.03732098178579   -0.37712889155197    0.41700019319088
C          -9.09639298707625    0.55965901176624    0.77369919121853
C          -9.65218188362753    0.77111421976331    2.00769959865010
C         -10.67726489920279    1.71106298407977    2.25865740200826
N         -11.49813116071756    2.46296204351695    2.53605924070207
C          -9.32025378013564    0.11409471204747    3.21363392712169
N          -9.13240776609672   -0.36183970887755    4.24172512883007
C          -7.34535686724546   -1.10598120409166    1.36589221285364
C          -6.37159366861046   -2.11801457537225    1.28094179934792
C          -5.91198584514247   -2.72583994247661    0.12620406720470
C          -5.01521181304233   -3.77497721186945    0.08186462737301
C          -4.27761639653828   -4.22467109626885    1.26402604284640
C          -4.56606806223519   -3.78830539976417    2.51564196381123
S          -5.79514637591487   -2.65328397403649    2.86981133788680
C          -3.30256748654374   -5.13167059157743    0.76970000496865
C          -3.42977101141383   -5.25777337388144   -0.62597173852268
C          -2.49105431584907   -6.16459212255283   -1.16834075526978
C          -1.69192941573214   -6.68578342824882   -0.20368498188998
S          -2.04326898768484   -6.11142227830371    1.39639964545925
C          -4.52478935324731   -4.45867790047309   -1.06520984961876
C          -5.06748329088155   -4.30529161363430   -2.36643127994821
C          -6.39386996517500   -4.01338337989512   -2.48876815273351
C          -7.11799118001783   -3.39340204909520   -3.54291319161252
C          -8.39921452864835   -2.83819489059441   -3.25415427738210
C          -9.11671584126591   -3.02864110097471   -1.98083201999958
O          -8.83970452457770   -3.69915056633624   -1.02819515010894
S         -10.61404304190878   -2.02991024675544   -1.97110422991897
C         -10.30847631592149   -1.39864274973280   -3.61502707349760
O         -11.02418599409488   -0.58579833639463   -4.12928095646770
C          -9.06525755656204   -1.98471138890278   -4.13575496955568
C          -8.53311128850404   -1.60363187372038   -5.38518753197917
C          -7.31944290436586   -2.23244553245713   -5.70570529431594
C          -6.65073818524206   -3.09712659028250   -4.84502845847175
C          -5.48417429851127   -3.62065607173922   -5.59159294307882
O          -4.64235570940764   -4.40880252634875   -5.28195000023022
O          -5.50377173475805   -3.05227100429482   -6.84208989069079
C          -6.57593318331934   -2.21054660232569   -6.98802870644336
O          -6.79662282220877   -1.63023071402940   -8.00612580633278
C          -9.19772047784375   -0.65674239755708   -6.24043721636437
C          -8.56536226301664    0.33774841075458   -6.89668345051955
C          -9.21142108970703    1.30920871480614   -7.72462242649085
C         -10.45658189262061    1.13897522386053   -8.28897353463720
C         -11.09106502993933    2.08025346990371   -9.08765741095055
C         -10.48673726026570    3.38017480337861   -9.36572174888267
C          -9.25831651035345    3.75118845997213   -8.92647785511763
S          -8.25723258100032    2.74796654820574   -7.97898535415208
C         -11.42244845559153    4.06863095494539  -10.18288520353012
C         -12.52744835018023    3.24891505457475  -10.44452801850646
C         -13.50610598429714    3.91743593917296  -11.21344563055109
C         -13.11796779154009    5.18201651064888  -11.52321170183470
S         -11.56376070807741    5.62048174533589  -10.89904886269619
C         -12.32695158696826    1.98486434941567   -9.78505436184218
C         -13.12229519507537    0.83125057404234   -9.83553217400657
C         -14.10688966781309    0.56113407781000  -10.75408296452643
C         -14.77236265836352   -0.66813335984764  -10.73637686704339
C         -15.64410348404180   -1.23195602693415  -11.64035542738673
C         -15.87130918797965   -2.69118286567249  -11.53754683254334
O         -15.55630395525538   -3.41904025288438  -10.62197167908647
C         -16.51224658288183   -3.08429556938125  -12.81417813561258
C         -16.83150735603421   -4.34644458181681  -13.26466849422501
C         -17.37628783525602   -4.47024156282399  -14.54454516769288
C         -17.58074445451869   -3.32528554706563  -15.33692024162504
C         -17.26469795718276   -2.04946974980838  -14.86299229473016
C         -16.73255599035774   -1.93132637707551  -13.59113139392610
C         -16.31682645852166   -0.75286860833487  -12.81877310160000
C         -16.69075826754163    0.53170404783436  -13.12909813403316
C         -16.52335421605857    1.65400464553097  -12.29780583196466
N         -16.45832218831279    2.61477233516757  -11.67105879085916
C         -17.38835351984305    0.89194732205009  -14.30107723646078
N         -17.93958087886829    1.25420035674755  -15.24073193456150
C         -18.10897212570170   -3.46949876056912  -16.64331419402889
N         -18.53198732040128   -3.57675209980217  -17.70199461768861
C         -17.71038202591063   -5.74922317174623  -15.04950820133727
N         -17.97252820440616   -6.79375222178350  -15.43945211486550
H         -11.12262097042510    2.60983558467012    0.09152646070870
H          -8.29015855459082    0.83000523219838   -3.60707310150568
H          -7.60320485590065   -0.86639912561021    2.39112867290186
H          -6.27351397355523   -2.32241360102241   -0.80706957794903
H          -4.04686100946804   -4.15097196028538    3.38931894113588
H          -2.41331662551221   -6.41088088100524   -2.21122414091700
H          -0.89464306738617   -7.39316690584348   -0.32249834017185
H          -4.40765997771859   -4.40499538706596   -3.21502095986764
H          -6.97889971423093   -4.16976553771616   -1.59599355355462
H         -10.27587195917889   -0.71077629123337   -6.25639579598220
H          -7.50194158952579    0.47828841222181   -6.75554943856769
H         -10.95341733334475    0.19799560054319   -8.10368461785436
H          -8.82712951131726    4.71109855864817   -9.16338896327989
H         -14.46496219772970    3.51909488406708  -11.49306368316305
H         -13.66255241234271    5.91056017018603  -12.09115019039081
H         -12.89500981832367    0.05707727266183   -9.11254172118179
H         -14.30396481412292    1.27292233495033  -11.53726091236570
H         -14.49411809232504   -1.35084886425516   -9.93748106998327
H         -16.66033034084387   -5.21506498360788  -12.64714550517333
H         -17.43082388640081   -1.19772124760088  -15.50304833947426
