103
 SCF done       -211.021309111321          0.000783056896
C          -9.67348764118270   -0.15459483610145    1.61538687167636
C         -10.39260663783771    0.98519302814416    1.93292895518116
C         -10.39923829829557    2.04396955515160    1.02214001791789
C         -11.12709908297792    3.22090359287331    1.32725319363782
N         -11.69581587654923    4.17927006620783    1.58829171957053
C          -9.68982444534752    1.96853804409495   -0.19109969404455
C          -9.71752479498810    3.03830650036302   -1.11718483589828
N          -9.70172531619115    3.87485127146045   -1.89918192911794
C          -8.95119327579746    0.82431799962311   -0.49754736482458
C          -8.95787875403745   -0.21613492250161    0.40585685876356
C          -8.33611441440410   -1.54763070486327    0.25389339387644
O          -7.65745859007793   -1.90385005297999   -0.68838719630979
C          -8.66904636791521   -2.28040371797419    1.49478173132303
C          -9.52601006251806   -1.43561464551049    2.30261150796972
C         -10.17562639032753   -1.80334658479308    3.45081763592061
C         -10.99941139245594   -0.94104615570019    4.20574820847576
N         -11.65929377240722   -0.28290575056073    4.87452680034226
C         -10.12415753050617   -3.09537590173071    4.01690134549276
N         -10.13670015598845   -4.12878268309474    4.51669888689418
C          -8.07395780117877   -3.44159060209106    1.92681554050770
C          -7.34434445736772   -4.36596559620021    1.14469137523092
C          -7.54831150979600   -4.56421830358924   -0.21199249207803
C          -6.78529814534019   -5.38910474464860   -1.01891509036221
C          -5.75710186101682   -6.25883672480250   -0.43925225320928
C          -5.45071401957138   -6.30554675273298    0.88002459419269
S          -6.17402618565412   -5.30478267938831    2.06152241205333
C          -5.23319529142000   -7.01606135163436   -1.52258475525895
C          -5.86584187127711   -6.63736261375051   -2.70907638074823
C          -5.37177628809676   -7.34689658072878   -3.82592584992967
C          -4.40311641132966   -8.22812943786449   -3.46477787278149
S          -4.04812387675516   -8.23145833766819   -1.76862977707743
C          -6.83036955172102   -5.60777829930487   -2.43099687752597
C          -7.55837872437784   -4.97036689362210   -3.44620557310162
C          -8.36339236320412   -3.86953910842264   -3.30551745712889
C          -9.08298791332208   -3.22510428422645   -4.32663875684466
C          -9.97907513365133   -2.17763313827936   -3.96860809395131
C         -10.59078234616602   -1.32448337839676   -4.95334388302682
N         -11.28621471302466   -0.25900253151549   -4.54156479121763
C         -11.52927414146853   -0.08044642459861   -3.26405353509174
C         -11.10177119301274   -1.05885283272162   -2.31626929861268
N         -10.30148111635680   -2.03803574975954   -2.68197166516429
C         -11.55565776066616   -1.00508634416984   -0.98002623929956
N         -11.94154329463591   -0.94960322313222    0.09884216547757
C         -12.21196734200992    1.07230537642353   -2.80902675213538
N         -12.74712511547109    1.97948162789136   -2.35809993311912
C         -10.48704124898506   -1.55706249012035   -6.34591147029389
C          -9.70380772876720   -2.69207366620813   -6.70381974070749
C          -9.00965998142209   -3.49334118322644   -5.71676080413425
N          -8.31346575062903   -4.47820594497872   -6.27773222921142
S          -8.49850822187822   -4.42930967376282   -7.87145602549257
N          -9.47114829376360   -3.14860870710358   -7.93435213064008
C         -11.14106042439625   -0.70410376763550   -7.28870406607063
C         -11.16750832661033   -1.01558178033067   -8.64197683933124
C         -11.76257122773944   -0.25803504112049   -9.62938993288880
C         -12.43020935536643    1.00016432220581   -9.34488803599624
C         -12.53803877462095    1.49810148454828   -8.08979817045006
S         -11.92655983403069    0.74016187302579   -6.67720415560353
C         -12.89616844372557    1.47967855620622  -10.60208167003267
C         -12.56880829243651    0.56857900950587  -11.61633409163149
C         -12.96745281810133    1.03737672506910  -12.88955144967121
C         -13.58449178952387    2.24362331399477  -12.80555784142783
S         -13.70770102729868    2.86660036117044  -11.19243044378301
C         -11.87466099352140   -0.54415268242081  -11.02914482358780
C         -11.40737096607061   -1.71872825813665  -11.62252659417572
C         -11.71463569070634   -2.18834264100561  -12.88039129949317
C         -11.19895725198390   -3.40876492543089  -13.31606356694452
C         -11.45931861008616   -4.15331895297888  -14.44728519272268
C         -11.02698277610286   -5.56812120140097  -14.42949011098568
O         -10.29569697724647   -6.09989363575677  -13.62198081425794
C         -11.71295528951722   -6.20944169240521  -15.57450442325991
C         -11.72057009950686   -7.53756067441514  -15.93994531821103
C         -12.49721127284003   -7.91377682477930  -17.03799378386182
C         -13.24644161212712   -6.94748803943873  -17.73436244023670
C         -13.22109888508607   -5.60141708718690  -17.35984095162533
C         -12.44407497543912   -5.23227828849894  -16.27611068578753
C         -12.19905333749065   -3.92149964270016  -15.65800427754416
C         -12.49693916018685   -2.72622792207940  -16.26749265571393
C         -12.07363611731203   -1.45686104849810  -15.83465581541564
N         -11.74663865117296   -0.38645236416795  -15.57430202893146
C         -13.20333696549847   -2.61092200812374  -17.48298910523184
N         -13.78511159165331   -2.44377416076508  -18.45860693008779
C         -14.04597387013230   -7.34718117774212  -18.83330940662602
N         -14.69873854870323   -7.66563619645150  -19.71838315592133
C         -12.53799566106407   -9.26930464713987  -17.44200970023229
N         -12.55660118304526  -10.37238312711031  -17.74966684977768
H         -10.95462870883788    1.07582172345836    2.84852639280025
H          -8.39699289030200    0.75158582905678   -1.42210846869153
H          -8.09826060739393   -3.65075769118602    2.98992494572188
H          -8.40043189837741   -4.05829908983119   -0.63096062579037
H          -4.70228943680429   -6.97611751508438    1.27251253957386
H          -5.71162710242344   -7.21823464935551   -4.83711285726669
H          -3.85524635949226   -8.89768005889723   -4.09858533744236
H          -7.44298743727620   -5.38079308258438   -4.44086150141224
H          -8.45786179975785   -3.38520036598155   -2.34818488681513
H         -10.67193226041011   -1.93330223878472   -8.92140506204884
H         -13.04916368704114    2.42518732984787   -7.88065936095714
H         -12.77579907559617    0.54630846028684  -13.82637675170331
H         -13.98365229161895    2.83047960561675  -13.60931322093360
H         -10.77044651092160   -2.34376908800583  -11.00779917996436
H         -12.40775064223496   -1.63859533402507  -13.49310466635060
H         -10.54566702702862   -3.92611091478827  -12.61758204238035
H         -11.14584942612652   -8.26711106925793  -15.38987117256872
H         -13.81385958494504   -4.89332321666719  -17.91644458205145
