102
 SCF done       -194.939557994403          0.000561890067
C         -14.00664282405235   -2.47577281368496   -2.21526062275708
C         -14.97229845260295   -1.59445782611325   -2.66849888707982
C         -14.60389353109703   -0.61951395602950   -3.60226657878411
C         -15.57377416140441    0.28885801430783   -4.09024644459205
N         -16.35017182152443    1.03014991840159   -4.48968603094825
C         -13.28198147319111   -0.52348008677668   -4.07184220252898
C         -12.91063437022539    0.43761328580989   -5.03825698952797
N         -12.54543763141928    1.18420410996196   -5.82840624304237
C         -12.30681155240659   -1.40251568308317   -3.59328689889078
C         -12.68551597205207   -2.36331103701482   -2.68377471558292
C         -11.85405281671185   -3.41945198863813   -2.06338691144200
O         -10.63568049011718   -3.49733961258114   -2.19030306044840
C         -12.75397797747718   -4.21410829346300   -1.24292883494678
C         -14.06563325222127   -3.61934840838303   -1.29873270649255
C         -15.21257970985642   -4.06382721640808   -0.68223077608970
C         -16.45714220238752   -3.41038494265810   -0.77567659166395
N         -17.49181855076782   -2.91288139821553   -0.80873357126998
C         -15.32236440947748   -5.22789736190316    0.10479587075011
N         -15.50690310148083   -6.17116449702109    0.73428073466255
C         -12.41557051128840   -5.28103631023461   -0.40845008742691
C         -11.32422371840420   -6.14399572232383   -0.47858052107583
C         -10.49370474546443   -6.30783707657270   -1.58733025180662
C          -9.44733576725131   -7.19631267044358   -1.67272569990215
C          -9.21817307258789   -8.21899100452269   -0.64386762756315
C          -9.89570324300063   -8.27043154582343    0.52476656346551
S         -11.11223132416725   -7.14765344747102    0.97093670813491
C          -8.22509760689784   -9.07940275544592   -1.18623536805112
C          -7.83469633933729   -8.62356379028539   -2.45302403239240
C          -6.83617430362351   -9.44256464229583   -3.02956283588899
C          -6.50646980252937  -10.47402051921017   -2.21273011589646
S          -7.38109715443386  -10.49458850814410   -0.71300894052398
C          -8.54357917122583   -7.42130751893430   -2.75892220018515
C          -8.35147033811965   -6.59320599197183   -3.88057721320376
C          -8.69872019367395   -5.27072582788323   -3.86811329907634
C          -8.76179899436269   -4.36119395253603   -4.93690333412353
N          -9.25037237159714   -3.09712413122498   -4.66558025554646
C          -9.35827497385422   -2.41806799761675   -5.83078865958573
C          -9.77092221534472   -1.22730029227260   -6.40141433995675
C          -9.52785140015376   -1.35393298083764   -7.78513927950005
N          -8.97065421409786   -2.58630281705494   -8.04336327330606
C          -8.86739268707177   -3.26460400983303   -6.87530562177934
C          -8.49989309916160   -4.47857362683815   -6.31626851377344
C          -9.78297218344298   -0.40954341115048   -8.80595430598120
C         -10.42317574850819    0.77208614232691   -8.58135864263060
C         -10.68863167849752    1.81064715887011   -9.51220483658374
C         -10.28972147876509    1.83544515564955  -10.84109275935223
C         -10.51428066416933    2.88137175447481  -11.72164112056454
C         -11.28342172591040    4.05454521670275  -11.30513166108691
C         -11.78022579625575    4.24310099532047  -10.05779495375502
S         -11.57097843843033    3.13177707883441   -8.78070719001366
C         -11.38759016526148    4.88951228021461  -12.45187672717243
C         -10.73180679555882    4.29522363695684  -13.52472602310860
C         -10.79768741647091    5.08526039507403  -14.69232931094615
C         -11.49088902095241    6.23483746467684  -14.47643686690783
S         -12.08492606837610    6.40580376134398  -12.86057555955461
C         -10.15375963777435    3.03992023499165  -13.09977078003405
C          -9.41856473897288    2.24884672939382  -13.97697903010795
C          -8.69830405912331    1.09381397890970  -13.73090149079936
C          -8.05137387080497    0.40839911795100  -14.74606995502870
C          -7.33950066462300   -0.78184233963494  -14.63569335002848
C          -6.33514359125270   -1.13780161121791  -15.65052259895878
O          -6.12603593338077   -0.59537750537229  -16.71431961165921
C          -5.59072781579410   -2.29461191390145  -15.07814058646888
C          -4.51328694526081   -2.97773290709641  -15.59344473010229
C          -3.97704468734940   -4.02884153169487  -14.84161905138645
C          -4.53874917818784   -4.36669221794577  -13.59769281791248
C          -5.64173208312568   -3.67238359575514  -13.09098956907752
C          -6.16222955707109   -2.63262492263604  -13.83691001859847
C          -7.31404662678150   -1.75715325354392  -13.60168868127591
C          -8.28110184451891   -2.00061859055933  -12.64109789518919
C          -9.56691185233393   -1.43047254753280  -12.63348570947077
N         -10.64580177917428   -1.03969765869275  -12.55901475753601
C          -8.14657562985520   -2.87558947164158  -11.56212207234274
N          -8.12080234316296   -3.49440118077361  -10.58904436465617
C          -3.98761264180956   -5.42774125020297  -12.84004701443280
N          -3.55895744398312   -6.28153336502738  -12.20799781288117
C          -2.86696268407989   -4.75465222226412  -15.33297239414224
N          -1.96756467782751   -5.33221788298794  -15.74506861707504
H         -15.99575517048410   -1.63444828945411   -2.33200404368670
H         -11.28903436741179   -1.32835590830249   -3.94205405840603
H         -13.08943614239418   -5.46792833866095    0.41894207040159
H         -10.74919765764302   -5.72764268315315   -2.45875590475805
H          -9.70575866479753   -9.02390753634116    1.27286925509423
H          -6.39032818969497   -9.28011295908699   -3.99367557563542
H          -5.78580860975181  -11.24833008794703   -2.38905846026544
H          -7.88364619905907   -7.02666222597011   -4.75363261482242
H          -8.98416839128345   -4.84085248398113   -2.91818162283334
H          -9.60037864690663   -2.85290963099540   -3.74636022644347
H         -10.18371516165605   -0.36339661715940   -5.92177554391399
H          -8.69525231940608   -2.93579210986862   -8.95977320755051
H          -8.09628302956321   -5.33994835396297   -6.80788832557393
H          -9.45434717774477   -0.67912550786502   -9.80019220633363
H         -10.78847908669084    0.96640587497616   -7.58199306989788
H          -9.79040645259784    0.95156794583885  -11.19906035566797
H         -12.34285744171612    5.12486337449029   -9.79397480076250
H         -10.36351889203389    4.82850567545945  -15.64134091486898
H         -11.69883428387543    7.01699033139719  -15.18018175626863
H          -9.41914757215850    2.59355490226696  -15.00526003373775
H          -8.59690992862800    0.73492278640474  -12.72073916340808
H          -8.01306186933712    0.86786737673256  -15.72796196840163
H          -4.09288358950887   -2.71234303779849  -16.55147843408291
H          -6.05068214330719   -3.95929728588639  -12.13449651108931
