101
 SCF done       -193.868311629071          0.000901034254
C          -3.94842532713710   -1.96882302104076    1.46875052177221
C          -3.50556391559844   -0.84877410021137    2.15053445880773
C          -4.03311589222748    0.39679374353572    1.79898118019679
C          -3.60690715081958    1.55455537907242    2.49472135313138
N          -3.26299825361173    2.48751202278340    3.06261846796148
C          -4.98529404588956    0.52273876782246    0.77085788930303
C          -5.50161898947083    1.79370689156428    0.42599345092520
N          -5.94250225991365    2.80681785968875    0.12397224833015
C          -5.43031226049444   -0.61154837551785    0.08878909508421
C          -4.91170128162374   -1.83403695781856    0.45450479037474
C          -5.25175739279363   -3.16834820656831   -0.08995550717606
O          -6.01327170628237   -3.34492956209032   -1.02878170036915
C          -4.49043250664314   -4.13369204560809    0.70935426659880
C          -3.61080407665993   -3.38830260280678    1.58993022262173
C          -2.58390184621172   -3.87014674893483    2.36357804902842
C          -1.76840736426515   -3.05944612454488    3.18116139074428
N          -1.07249093371808   -2.45728073874419    3.86743653667753
C          -2.14312766552420   -5.20890541602505    2.43477558742963
N          -1.69591638266012   -6.26180269252017    2.54214949106298
C          -4.57909701898994   -5.51487908936847    0.76940595570299
C          -5.36091574550871   -6.45870373341549    0.09305428307028
C          -6.25704075974258   -6.22374742110390   -0.93919916472253
C          -7.04325910598892   -7.18425235400004   -1.53726950858880
C          -7.00903772252334   -8.59333276474027   -1.12856972301446
C          -6.19119147432555   -9.07566209114263   -0.16599515290973
S          -5.09651493059182   -8.10479531279757    0.72180319776109
C          -7.97410140043840   -9.23729944163089   -1.94347296033718
C          -8.58200645590814   -8.30766994796539   -2.80333679761702
C          -9.53311894299324   -8.93147508316927   -3.64806622238128
C          -9.62482734760363  -10.26343440297540   -3.40885463776483
S          -8.56734288243235  -10.83127801977100   -2.15788764914666
C          -8.01100027356256   -7.01785790458628   -2.56502989922718
C          -8.29391982537579   -5.78207899438976   -3.19185914131722
C          -9.33853152392881   -5.53566668816347   -4.01732126982107
N          -9.50918277351733   -4.34853552837837   -4.65638474249634
C         -10.68280859235164   -3.94393090256821   -5.27458910358012
C         -11.93783529571429   -4.39383536039340   -4.98165957014897
S         -13.13867490283007   -3.64205842934624   -5.94803021108431
C         -11.95495809730301   -2.71104944746310   -6.77491620697406
C         -10.69021646081550   -2.97031617089275   -6.33163661300929
N          -9.51204999194988   -2.43867426241692   -6.82334108173125
C          -9.41432707946078   -1.46783661933698   -7.77032494738746
C          -8.27916217790486   -1.21851857444837   -8.45737202174267
C          -8.12263099610891   -0.20992486157443   -9.45602717822269
C          -7.00789375158642   -0.17399903994788  -10.26459811785981
C          -6.81095008075626    0.71841698420917  -11.31444611588544
C          -7.77666411733156    1.77669976994964  -11.60611092528256
C          -8.92327507395417    1.96133626541174  -10.91408960522828
S          -9.41946700456082    0.95754471945055   -9.61579199190792
C          -7.24431658241441    2.48047153561644  -12.72151103393039
C          -6.03037066081696    1.91307894155047  -13.11085772565875
C          -5.54494994839085    2.49610615091577  -14.30216403918446
C          -6.36166697282111    3.48756917765703  -14.74714685395569
S          -7.75217842522377    3.74903394560245  -13.76054933456853
C          -5.72229620907804    0.81802769214584  -12.21509049468818
C          -4.62384363488773   -0.05823648182022  -12.22358805394450
C          -3.37431393189887    0.14544840749312  -12.76300825462495
C          -2.86771821698419    1.39905271307702  -13.11062405490239
C          -1.63554913407866    1.62498130667352  -13.69240549976344
C          -0.69467125826792    0.56965709001466  -14.09668946191094
O          -0.81955164182590   -0.63620950825962  -14.01443051311147
C           0.48553749606626    1.28193607582183  -14.64892005067884
C           1.64618272098692    0.74372071517205  -15.15846873581935
C           2.62591132546899    1.61924877395901  -15.63203902667498
C           2.41212594527818    3.00914511676013  -15.57920076887520
C           1.22957589453926    3.54199997335405  -15.05944190387418
C           0.26128830387019    2.66992054558535  -14.59283440779764
C          -1.06052761067373    2.90754734242723  -14.00377214265071
C          -1.62363780135520    4.14891941253895  -13.81708784926211
C          -2.89724682203684    4.40115108771414  -13.27091797309704
N          -3.92441221223615    4.69557462947954  -12.84690036884111
C          -0.99778952469484    5.36244881470494  -14.16621516187662
N          -0.54327874273684    6.38376230501540  -14.42963047091828
C           3.41446168623948    3.88467453215812  -16.06337521960522
N           4.22034189532266    4.59711695630041  -16.45621397280238
C           3.83211742177340    1.10684521936953  -16.16448965742260
N           4.79877266025558    0.66758620061520  -16.59443838038700
H          -2.77884149310888   -0.90284896961333    2.94481592386862
H          -6.16480688858002   -0.53309388746264   -0.69835130547151
H          -3.94632603167733   -5.96714133349627    1.52470805890212
H          -6.33981577568539   -5.19896965111557   -1.27045954411572
H          -6.17565434140668  -10.11741763367391    0.11411088821157
H         -10.11569255479467   -8.44029073349426   -4.40553351621709
H         -10.26009308683126  -10.97475515186063   -3.89945346742457
H          -7.62041281798510   -4.96574284964961   -2.96610421577157
H         -10.08885128552500   -6.27885488080475   -4.23228717131652
H          -8.80505443945015   -3.63996813205460   -4.49370376032780
H         -12.22534321117683   -5.10479055455783   -4.23446017615492
H         -12.26575830385211   -2.04740366745346   -7.55464767941468
H          -8.67145305342369   -2.96748532922867   -6.63017881613697
H         -10.30980086413825   -0.88924942275803   -7.93688521562579
H          -7.41234947241659   -1.84367994359149   -8.28582069948339
H          -6.25069338298467   -0.92346216040963  -10.07778337646937
H          -9.61878179376365    2.75415422399738  -11.13804459369204
H          -4.65649935024279    2.19240800686346  -14.82497086694576
H          -6.22764000979591    4.10298883190402  -15.61496077729983
H          -4.79178144061615   -1.01846750221006  -11.74928447393225
H          -2.71174681788578   -0.70390138158595  -12.84759623451985
H          -3.46445024536875    2.25861875759836  -12.84186402432815
H           1.79307414500765   -0.32525189963613  -15.19085835876420
H           1.10457755345979    4.61264322790374  -15.03567985653412
