115
 SCF done       -206.448430040236          0.000400628109
C         -12.60674837874017   -8.50256297637796   -6.97034192898976
C         -13.64376517209428   -8.63689942312078   -7.87693105913334
C         -14.02137639259681   -7.51981310109952   -8.62719972566957
C         -15.08012449326043   -7.63643125876578   -9.56077309810726
N         -15.93501049791005   -7.73747401038117  -10.31572404323924
C         -13.36915974538786   -6.28235223891918   -8.47475584101656
C         -13.76400348892283   -5.16915724156717   -9.25343593176032
N         -14.06124552748399   -4.25311916853130   -9.87357736046095
C         -12.32732176710225   -6.15053094186361   -7.55453859768266
C         -11.96764216818745   -7.25953461834354   -6.82050771608450
C         -10.91584943975040   -7.36600888614489   -5.78563392070143
O         -10.20853710323852   -6.43645926737549   -5.42962924479484
C         -10.96307829739455   -8.74591198526925   -5.29924741614681
C         -11.97066654294646   -9.45763578554910   -6.06027368112102
C         -12.25851924589464  -10.79996200630100   -6.02771169506450
C         -13.25393954530757  -11.41255296264142   -6.81792515686042
N         -14.04796870835667  -11.97341127486515   -7.42860074270728
C         -11.60264440171920  -11.78077572453106   -5.25352061743003
N         -11.11713948144926  -12.65487211564592   -4.68735267734082
C         -10.27741082347929   -9.33206473719059   -4.24874311304988
C          -9.20471280892814   -8.91912035129112   -3.44822377518471
C          -8.43521363467460   -7.77063270474655   -3.58233760399690
C          -7.32384803637714   -7.47164617917651   -2.82103234014003
C          -6.78068971334736   -8.42110033187711   -1.83507001244967
C          -7.38665730110909   -9.57954077833520   -1.49051254205665
S          -8.85053935255645  -10.12356016334553   -2.18546022362881
C          -5.55702545391536   -7.85423215202885   -1.39752914788077
C          -5.34264647039798   -6.63279539487198   -2.05143919847120
C          -4.13009793497631   -6.02205991521333   -1.65180562734052
C          -3.47260929643850   -6.77464825741762   -0.73533326835331
S          -4.28913124988306   -8.24817007891531   -0.31186666915199
C          -6.44840412235709   -6.35655691669560   -2.91196712653206
C          -6.56927194893387   -5.15667487643208   -3.66012375009601
C          -7.72187690317567   -4.58490805063768   -4.08603527854472
C          -7.78499804072571   -3.38408583184308   -4.85505230200629
N          -8.86625163617598   -2.55276937690506   -4.83390842232462
C         -10.05951346740095   -2.63928834369150   -4.03269722727246
C         -11.16897065406586   -3.38567416001357   -4.76876531855736
N          -8.72015448082836   -1.53507007155912   -5.65745473217015
C          -7.54493755230620   -1.68026878492495   -6.25985218170029
C          -6.89141215278747   -2.82839033494380   -5.78670210811802
C          -5.58154174270778   -3.37648327520875   -6.24327650562243
C          -4.39316445306342   -2.76026024817841   -5.50008473165342
C          -7.09441974140737   -0.67429109553937   -7.26050463841281
C          -6.33913452667341    0.48761921731057   -6.57981908313896
C          -6.08587855916729    1.57463979781647   -7.55920772737505
C          -4.94017274305784    1.73811559865610   -8.22887529719438
C          -4.69965550867655    2.77862116197325   -9.20075952074671
C          -5.37250150007636    3.97456098495287   -9.19966730775447
C          -5.19305248908995    5.00353496620003  -10.12199794634944
C          -4.17185597526009    4.89188652194510  -11.16465021274456
C          -3.38170225442030    3.80582707880770  -11.34367338885719
S          -3.47155555147653    2.39728018318891  -10.37762562947892
C          -4.19232157519361    6.13152791602016  -11.86325747253808
C          -5.14889994954105    6.96975865454408  -11.29848869255762
C          -5.21307025346859    8.21907635021561  -11.95071900651470
C          -4.31815965423430    8.29388525399885  -12.97204300625390
S          -3.37040377076411    6.86315357806767  -13.18390269002683
C          -5.80666159102044    6.28030823633630  -10.20954989043378
C          -6.82182768483362    6.87570009013070   -9.45001102854556
C          -7.64094703075385    6.30195869676409   -8.50518523648349
C          -8.58408290449586    7.04244147833533   -7.79498546583635
C          -9.43051975761974    6.59132494192240   -6.80010264052834
C         -10.63916742471758    7.36764202658770   -6.46607718342072
O         -10.91932491716011    8.49156136368366   -6.82130348153366
C         -11.47071452193474    6.45979482565964   -5.63208616422283
C         -12.73044133832036    6.66801791899716   -5.11656182337835
C         -13.32055809532431    5.63667749449509   -4.38038422903406
C         -12.63408817968295    4.42395632857162   -4.18707447552717
C         -11.35078184357556    4.22878014459271   -4.70527404401308
C         -10.77017906504636    5.25612706043154   -5.42535129028120
C          -9.44464417220720    5.37618643150163   -6.04061603867091
C          -8.37692513318571    4.56218053511717   -5.73065273208751
C          -7.03481892034324    4.87388058020865   -6.01382079229224
N          -5.91506002921946    5.07761978525238   -6.17475634574709
C          -8.46328069641867    3.35932379719608   -5.00695214316363
N          -8.44604696522301    2.34445393819979   -4.46700243850728
C         -13.24602946702129    3.37904236704203   -3.45328541480785
N         -13.72290311975571    2.52109311158135   -2.86314169985712
C         -14.61129085264127    5.81275110001435   -3.82843165566956
N         -15.65505664464924    5.97460685985192   -3.38513631192695
H         -14.17057176696180   -9.56598406807743   -8.02250786546644
H         -11.81801704513413   -5.20790532908329   -7.42399325903211
H         -10.63563252692160  -10.32013340382827   -3.98185465308999
H          -8.71974100567270   -7.08991145264460   -4.37074582461393
H          -6.98214095565477  -10.24448242422305   -0.74337370915116
H          -3.76317097931599   -5.08176419585511   -2.02101076256159
H          -2.53533977544220   -6.56144007815840   -0.25965874991939
H          -5.64003461843550   -4.62648781014748   -3.81059586974251
H          -8.66873468141295   -5.02422053216198   -3.80907507795962
H         -10.37609346480028   -1.61335037778557   -3.83005622558817
H          -9.82054472237850   -3.13171365203595   -3.08754359707016
H         -11.40313697828980   -2.86989527034700   -5.69691974709355
H         -12.06322628295464   -3.41852168503653   -4.15239699304606
H         -10.85841720405725   -4.40234208076652   -4.99661011274999
H          -5.46572990261680   -3.17917268413194   -7.31218843766446
H          -5.57998954291847   -4.45978077646376   -6.10157804988922
H          -4.30207571506982   -1.70326763920260   -5.73539789800468
H          -3.46965257595277   -3.25746668441637   -5.78898812907084
H          -4.51589440938712   -2.85041329103055   -4.42276960825936
H          -7.97674897697912   -0.27387597207407   -7.76193281068012
H          -6.44586407417610   -1.14045320969948   -8.00469119376540
H          -5.40005663845959    0.11870322041260   -6.16675255233414
H          -6.96077937063449    0.86448669836630   -5.76447934706458
H          -6.92891908511956    2.21987976938943   -7.76549535333934
H          -4.12867533325696    1.03826149654230   -8.07679251284021
H          -6.03791942389380    4.13298119550321   -8.36957914465026
H          -2.63415132813299    3.75891439951046  -12.11978844040476
H          -5.87700455037718    9.02242216695622  -11.68830052087749
H          -4.14719611535968    9.11949379062895  -13.63484260193263
H          -6.96999219496119    7.93332826902037   -9.63809183621714
H          -7.59813748932322    5.24002171283409   -8.33241306324978
H          -8.74719695471047    8.07284922956887   -8.09335702451989
H         -13.24773596166659    7.60202320328191   -5.27504826099271
H         -10.85247432217091    3.28643848877326   -4.53924294799603
