111
 SCF done       -208.341255381144          0.000710268300
C          -1.83339434290562   -6.91870421390504   -1.68612258565433
C          -0.46777856267943   -6.79915085654554   -1.89817518641406
C          -0.02277267619942   -5.87992074495325   -2.85027221089157
C           1.35876577824089   -5.66666964414134   -3.06856946709537
N           2.46422702965600   -5.44076498127938   -3.27034726706335
C          -0.92928464278538   -5.09690015728219   -3.59479520547144
C          -0.42252222111302   -4.12165693327695   -4.47714030398089
N           0.00002943488117   -3.30480621248361   -5.16180451755093
C          -2.30318451066523   -5.25339735719335   -3.41331628186245
C          -2.72222790948062   -6.15428846630071   -2.45894033671472
C          -4.11456249530094   -6.43664639745912   -2.04090486469700
O          -5.08877390101563   -6.01695627979653   -2.63971545792639
C          -4.01164653793857   -7.32874503747635   -0.87853463003191
C          -2.62016645825216   -7.70748150124182   -0.73336096852391
C          -2.07464349077768   -8.63876796050216    0.11770096559224
C          -0.69227134440171   -8.89999050293627    0.20371681274608
N           0.42357525983393   -9.14910121678993    0.31304272421009
C          -2.77493760332077   -9.49398992544549    0.99359338294519
N          -3.25219991677527  -10.25940499187591    1.70511688852198
C          -4.98936329521492   -7.75401672517796    0.00834895167375
C          -6.34246440662525   -7.41639010043880    0.14627467070194
C          -7.03077648884461   -6.47522193015325   -0.60306891130362
C          -8.35057564783010   -6.12879199779522   -0.43576927302511
C          -9.20981646702602   -6.74725797653251    0.57212034461305
C          -8.76800253913384   -7.69521494822270    1.43314779548862
S          -7.16157013143441   -8.29473789531318    1.45467017896927
C         -10.47963689560505   -6.13384305604355    0.39630387561499
C         -10.42672178252503   -5.19090178365307   -0.64351558547522
C         -11.67638992187902   -4.55988459545733   -0.84393193440354
C         -12.61724601913035   -5.02337002335478    0.01695804744514
S         -12.03701713931756   -6.24043242796695    1.10779036682191
C          -9.09960460383753   -5.16637312569546   -1.17752264430028
C          -8.50621518675110   -4.40032845641526   -2.18995857282328
C          -9.02230257936264   -3.45155789086172   -3.02507170346829
C          -8.18382714236158   -2.79202663061561   -3.94876817932653
S          -6.46043320204743   -3.15465369425621   -3.95633415675381
C          -6.23025500339246   -2.03439024978980   -5.22169271224728
C          -7.41280641575761   -1.40696089427304   -5.63300556715160
C          -8.51282079958954   -1.83460596976111   -4.90956881736550
C          -7.12261103120895   -0.42939432229656   -6.75414385949523
C          -7.85143853077107   -0.82677496188559   -8.04061100470936
C          -7.48108299904848    1.00246793378043   -6.34765712804283
C          -5.62340984534349   -0.59873544877048   -6.89649326229765
C          -5.15473531374447   -1.54568849030380   -5.97924283497108
S          -3.46500661543833   -1.78418539552935   -6.05538943979323
C          -3.35540267073696   -0.59371223804132   -7.34328271295383
C          -4.60374566028411   -0.06782366110383   -7.66933636531371
C          -2.09139432506566   -0.26190004955382   -7.87943798217393
C          -0.94783432849483   -0.79541214493515   -7.37472005411216
C           0.39451058738774   -0.52112481781669   -7.72615804285965
C           1.40472056384963   -1.04634950601997   -6.94034969239626
C           2.75310514409231   -0.79304946958722   -7.10019447861367
C           3.25572525396881    0.02920214520258   -8.19477418869804
C           2.45317716254422    0.62177231640725   -9.11051798152718
S           0.73992289044713    0.50833416774289   -9.09880278167230
C           4.66652080180354    0.07911988940603   -8.00501173567818
C           5.02390017401921   -0.60786854992153   -6.84164521664696
C           6.41732835949344   -0.56434548259252   -6.61724310875464
C           7.06184264118740    0.13912106373641   -7.58535526993141
S           6.01539004251462    0.77842935813975   -8.80428709749790
C           3.83159258639125   -1.15928743146174   -6.24549544482988
C           3.62545425872766   -1.76385430971484   -5.00607182779503
C           4.52629809731829   -1.89810262915268   -3.97106280796400
C           4.20472266810217   -2.36650861840925   -2.69978897010375
C           2.98121384199410   -2.57873399142776   -2.07524888741928
C           2.96968977954126   -3.48423460410125   -0.91241062293978
O           3.91672926963890   -3.94549799485153   -0.31472196432391
C           1.53291397187786   -3.72830796147806   -0.61143418662064
C           0.97736656336874   -4.57778894258393    0.31971356997592
C          -0.41551881080835   -4.64320969886521    0.39787097952215
C          -1.21077698902854   -3.83626866819799   -0.44001223780905
C          -0.63193263562069   -2.97065495938148   -1.37176280241200
C           0.74895406886243   -2.93118519944290   -1.46546353125048
C           1.64242940764284   -2.13520033826162   -2.31661923037321
C           1.21456806651221   -1.02624709911820   -3.02274870332663
C           2.07995301477835   -0.03254867070055   -3.51303325705918
N           2.72734550399919    0.84464795580659   -3.87553731825140
C          -0.12912825857383   -0.72639734096179   -3.29641447351047
N          -1.20641090475008   -0.46770721768725   -3.60721296290412
C          -2.61740435812389   -3.94761316233706   -0.34743370068633
N          -3.75491727513222   -4.07358089145863   -0.27604434916076
C          -1.05634045375322   -5.53809555373443    1.28323177455858
N          -1.59700199469064   -6.28606632221550    1.96287467090795
H           0.25902089685474   -7.37259131826253   -1.34598557945440
H          -3.01537515149767   -4.66983393143118   -3.97682811868800
H          -4.64452950730880   -8.44958857422895    0.76391422723714
H          -6.46437782310162   -5.99156840643664   -1.38230000595822
H          -9.40492105801045   -8.14535907349056    2.17876184777863
H         -11.87537308002614   -3.80423533424878   -1.58128534519315
H         -13.64492972739592   -4.72527146406285    0.08995114676489
H          -7.45108360834345   -4.60205010746789   -2.32369869776531
H         -10.06737645665056   -3.17868736180428   -3.01104382941785
H          -9.52129279533878   -1.48815518524889   -5.05022942989947
H          -8.92714482109921   -0.76896566117775   -7.89391188628589
H          -7.59208881114694   -1.84462466262329   -8.32299997161594
H          -7.57134275612030   -0.15791787171123   -8.85066350560995
H          -8.55125795760608    1.08485892960514   -6.17443529110825
H          -7.19846923596560    1.69673065466282   -7.13512928576845
H          -6.95730064230361    1.27801984034647   -5.43522540153694
H          -4.72703202918521    0.67719700725119   -8.43503246338638
H          -2.06423858234767    0.46040880866728   -8.68462056053239
H          -1.04520073155555   -1.49298783623558   -6.55157419395618
H           1.08334295329848   -1.68672426648790   -6.13363562610213
H           2.83631690461205    1.23880122512787   -9.90776486860789
H           6.93131585236618   -1.02868126350442   -5.79627344381172
H           8.11399898923512    0.33074136701759   -7.66600758370700
H           2.63159495857523   -2.15596632491842   -4.83875377478671
H           5.56215649075478   -1.64867547308040   -4.14658533438363
H           5.04123377280978   -2.67630434799313   -2.07964640737722
H           1.59982491622482   -5.18187004389950    0.96197202992240
H          -1.27142790207807   -2.36816425630498   -1.99774578941437
