120
 SCF done       -222.767719414621          0.000591735554
C          -0.32445686818312    2.83403904547118   -9.80580948390816
C          -0.46817185926445    3.77054974148264  -10.81719245527615
C           0.61929223930189    4.01078832162111  -11.65847048245186
C           0.49529198295509    4.97023984320382  -12.69415536887971
N           0.38333835062803    5.74930057405738  -13.52537833553536
C           1.83517054900241    3.31859824722866  -11.49706786769828
C           2.91676445008326    3.58380897655097  -12.37105778419203
N           3.79972654958191    3.78744933251695  -13.07112009197667
C           1.97345907542405    2.37357321976509  -10.47811167600367
C           0.89743786696827    2.15292989958230   -9.64645367489698
C           0.79795563261325    1.20181872816417   -8.50615014258384
O           1.58694603565164    0.33936082366617   -8.22775101343527
C          -0.53266892268530    1.48860197164427   -7.89434962738455
C          -1.26095349431605    2.36743505598475   -8.78606610400577
C          -2.59809449599481    2.67996325463046   -8.73245279112577
C          -3.24452187581468    3.56072240136452   -9.62647794714201
N          -3.83647602428852    4.26969041238257  -10.30746871142048
C          -3.54017584653520    2.14674345377330   -7.83296876365014
N          -4.39720510577282    1.75517438606015   -7.17171106642920
C          -1.00901361779471    1.02974816957131   -6.70349231819319
C          -0.33867041829365    0.27890969895837   -5.70604561772909
N           0.97725130615692    0.22173796542166   -5.55785386823885
C           1.19223615447684   -0.52962761766478   -4.46453152664220
C          -0.06871814784548   -0.98656256412534   -3.86595635596160
C           0.19086346931585   -1.80647960612429   -2.67263724599355
O          -0.61092969815426   -2.34103578852430   -1.93482879123773
C           1.66267345820606   -1.80831604255517   -2.59617511462485
C           2.23640612097573   -1.01278050261764   -3.70243330898856
N           3.58672528989429   -1.00201384250642   -3.63416132273566
C           3.88378469911432   -1.72916249649616   -2.58256380048184
C           2.72852577936049   -2.26407647959559   -1.88841847412009
C          -1.06929221475007   -0.46639576203985   -4.65007545445158
C          -2.48474982796629   -0.56788500118251   -4.56633806467010
C          -3.14196255351357   -1.21414817378115   -3.57657752379843
C          -4.57380806834483   -1.29232687894881   -3.46303691852069
C          -5.42694075641653   -0.52721717400541   -4.24251173903770
C          -6.81216194292477   -0.63906858055044   -4.08218358747586
C          -7.85938431258208    0.03070497897987   -4.73113997444328
C          -7.67628301214946    1.00240268643230   -5.82577534329468
C          -7.90486540757780    0.28183992835839   -7.20538061644568
N          -7.43594311332245    1.03174943405323   -8.32545681334974
C          -8.54628724609316    2.26612530842627   -5.73525364563122
N          -8.03669620099771    3.27271828465458   -6.65192548724854
C          -9.08829607325379   -0.49928376448814   -4.18748026655849
C         -10.38370588109387   -0.24562031576082   -4.46012133712607
C         -11.48611220198315   -0.95264796528374   -3.75590577763132
C         -11.04267858806474   -1.90900181396883   -2.69186210882341
C          -9.74192825424014   -2.16674288394183   -2.44244771582895
C          -8.73415833410852   -1.49111254210343   -3.15903138974685
C          -7.34890921331292   -1.56513682730608   -3.10693478812418
C          -6.46619438852222   -2.32975960861486   -2.31603088503617
C          -5.12374279594172   -2.18472266886573   -2.49038245675726
C         -12.27001626193387   -1.80254519775716   -4.72288672964400
C         -13.56191799100101   -2.12014649306393   -4.55341204772457
C         -14.25481472753699   -2.97518125552274   -5.46427490064014
N         -13.73594469126830   -3.31322387219447   -6.63582853718028
C         -14.64456779146746   -4.10916474064782   -7.22802562318019
C         -15.83024060324691   -4.29466841364499   -6.37954739580845
C         -16.79193380597183   -5.20302911609116   -7.03034892905148
O         -17.87013062837298   -5.58180793237170   -6.61701777656548
C         -16.12180545609122   -5.53440342682368   -8.29316017747466
C         -14.81598991845998   -4.84357044943349   -8.38007251071731
N         -14.18861626240508   -5.15269588040024   -9.53598978389547
C         -15.00036665347556   -5.97798346995636  -10.15796178304862
C         -16.22130376662031   -6.26336033630208   -9.43602696211621
C         -15.58863501173266   -3.57120986174389   -5.23335191947903
C         -16.35736810666875   -3.47172992778842   -4.04148747038010
C         -17.53038091372113   -4.13449510398148   -3.88682041839833
C         -18.27602486081209   -4.15887636183221   -2.68469535570739
C         -19.26207160494360   -5.05501931020635   -2.40222944214960
C         -20.23583031819470   -4.81024027811651   -1.31042781894847
O         -20.15287797174699   -3.99528042987461   -0.42225648566209
C         -21.35600742670038   -5.74279272716360   -1.58391208368609
C         -22.56291212920442   -5.84993950039277   -0.92577350833653
C         -23.48349673957761   -6.79243374771288   -1.38673818992756
C         -23.17507611631088   -7.59712352561350   -2.50092529175565
C         -21.94668275455004   -7.48755683425480   -3.15494275707151
C         -21.03202699934566   -6.55974361997994   -2.68665613559527
C         -19.66755263872311   -6.25038472415361   -3.11640450692712
C         -18.86465583801794   -7.07271237501220   -3.85776782192977
C         -17.46301356923045   -6.92574479795578   -3.96677584910149
N         -16.31669340477761   -6.90759862102620   -4.00584649443338
C         -19.31881463519989   -8.25009041529043   -4.49119541563543
N         -19.64986136407386   -9.21006795390828   -5.02420799235565
C         -24.13059646580230   -8.53542450417395   -2.96468485640277
N         -24.89967815220983   -9.29325926898974   -3.34495059166638
C         -24.73171129856151   -6.93666573794664   -0.73452196899292
N         -25.73463068333096   -7.03766283459699   -0.19120576351222
H          -1.38363443020977    4.31931108681585  -10.97200621200884
H           2.89768638384579    1.83321295801189  -10.34087605008346
H          -2.03016189784757    1.28824569224649   -6.45497546723791
H           4.91091269202232   -1.88159235178034   -2.30013308743148
H           2.75754135752277   -2.87883772025218   -1.01061212197498
H          -3.04683392915869   -0.09686785591796   -5.36046778842834
H          -2.56661803782655   -1.72114306854970   -2.81281153201996
H          -5.03484662053830    0.16737803558424   -4.96810056839368
H          -6.63111080213698    1.32840177205244   -5.82724202886743
H          -8.97439074329630    0.09421694997432   -7.32821301914081
H          -7.38309087127673   -0.67815899052189   -7.18189560250193
H          -7.85330744634092    1.95795804509301   -8.34206439671595
H          -6.42723893478368    1.13313748809143   -8.30742548525602
H          -8.56680739007364    2.60440270049912   -4.68548325490123
H          -9.57226710629068    2.05051540777078   -6.04162199911128
H          -7.10362207646631    3.56631475386020   -6.38172210495265
H          -8.63416205254757    4.09098005323572   -6.66217397842625
H         -10.68723163162989    0.45275763274572   -5.22503527276606
H         -12.16419219730775   -0.20653208909621   -3.31792141424045
H         -11.82737927656404   -2.41608448297290   -2.15308140429377
H          -9.45916346318774   -2.87870163630189   -1.68122896683086
H          -6.85985131242425   -3.01578993182145   -1.58130682106027
H          -4.43244221194385   -2.75768526819944   -1.89043084206930
H         -11.72930550842613   -2.23377315261409   -5.55195136576438
H         -14.11880338191577   -1.73527036100713   -3.70973843663280
H         -14.73316696179360   -6.37752218619443  -11.12077548198997
H         -17.00644960726884   -6.91332472426672   -9.76784872832167
H         -15.94314619930324   -2.91294803800527   -3.21256656114287
H         -17.92141508343585   -4.69176963582592   -4.72721454576442
H         -18.10079886533214   -3.38595960926822   -1.94392772670865
H         -22.78891339227927   -5.22222628154497   -0.07712724595488
H         -21.74289368887170   -8.11509139816172   -4.00823616977709
