102
 SCF done       -215.119094383458          0.000561782839
C          -3.21096825932555    0.73824560431160    4.48442441264461
C          -3.34600303370487    2.10778261244124    4.64634016203225
C          -4.63223106637317    2.64542197044334    4.69205116308430
C          -4.79639613828750    4.04273105293855    4.86750471135027
N          -4.91774023791125    5.17223244981078    5.00701872907791
C          -5.77117750296053    1.82436795516364    4.57117321022560
C          -7.06278485739516    2.40391999579322    4.61788886877049
N          -8.11275305058007    2.85935092244636    4.64698395575166
C          -5.63086154780438    0.44581088198651    4.40694409435353
C          -4.35590101286745   -0.07756673113088    4.37148721036115
C          -3.94345354968870   -1.49062404686125    4.22813263971148
O          -4.60323996991712   -2.43277501958072    3.86731776466563
C          -2.46878041978008   -1.47533009403368    4.50304261280003
C          -2.01477987282687   -0.09507166158382    4.42467368226106
C          -0.72460203618309    0.32410022844712    4.27840581241532
C          -0.33089744394221    1.67854269433286    4.20071348096962
N           0.03288995755818    2.76348486736885    4.13384823602941
C           0.34966015954286   -0.57909034842955    4.12013622289417
N           1.22310713336409   -1.30570681032344    3.96136013455109
C          -1.78998981021489   -2.55931232667690    4.92167547908103
C          -2.41754514382833   -3.81882294825589    5.23512024369536
C          -3.48924662144438   -4.01795107588748    6.08577713334969
N          -4.21942825430032   -3.07181300792130    6.83006465005090
O          -4.96376108802852   -3.49750823695942    7.68952028014402
O          -4.06794939056730   -1.87665435766436    6.59821622742808
C          -3.70880019064685   -5.43669244860692    6.25968063670375
C          -2.83526934542061   -6.10126603750100    5.47528070386348
C          -2.00160534551734   -5.14401879596486    4.77562736042111
C          -1.02384855013674   -5.42910543110617    3.84565941714065
C           0.07367545169438   -4.60022435168734    3.45330999252048
C           1.04354394312039   -5.39061973770781    2.92075956185545
C           0.58150183061719   -6.74827901732890    2.86399402860729
N           1.40503710948547   -7.75311533907723    2.33981819559965
O           2.40711152365607   -7.40630479063340    1.74923035850163
O           1.10415315436479   -8.93406323088601    2.51980543799068
C          -0.74188803430646   -6.78934564739187    3.31991974118104
C          -1.73793951240597   -7.76488821468227    3.12324350647713
N          -1.47841710466430   -9.09611508834863    2.93448631517281
C          -2.64742018381712   -9.73484520486037    2.70010397500555
C          -3.21325173139980  -10.96924276184024    2.46954708403721
C          -4.60680663336021  -10.74292327857428    2.32941369534188
N          -4.87046501120313   -9.39801455354531    2.46651313280656
C          -3.70044360312753   -8.75398598101397    2.71687983091736
C          -3.14026192174584   -7.52732985728634    2.98731191849838
C          -5.57238973095212  -11.73263784366459    2.09120234119042
C          -6.91207980046705  -11.48076354069305    1.92499322056275
C          -7.92551798505428  -12.43100435633062    1.74443526379700
C          -9.28444526020118  -12.22379131754083    2.00992648483888
N          -9.93476915402236  -11.01872800786622    2.33519795419169
O          -9.27514070318792   -9.98902364876627    2.38113936047791
O         -11.12949838563488  -11.07123962611782    2.55240064392772
C          -9.96596901580994  -13.47911618339325    1.98450106213336
C          -9.06532716810649  -14.46971464254132    1.71666635094776
C          -7.79163184795717  -13.88002131082794    1.46161733128613
C          -6.72506010422196  -14.51895088471086    0.86720474645884
C          -5.72636034012003  -13.93866630602246    0.00673072676647
C          -4.96469824005779  -14.93236302657063   -0.50647177688652
C          -5.42151480247070  -16.19161346692026    0.03195307652373
N          -4.72122945752645  -17.38781462449407   -0.21590181127947
O          -3.72288873581865  -17.31692222185749   -0.90558863317606
O          -5.13959496492286  -18.42899344894452    0.27377420572803
C          -6.51483088057705  -15.97105744802439    0.85574415295145
C          -7.20648154927631  -16.86202003908923    1.73126590186395
C          -7.59265376349435  -18.14177804538472    1.52328145308147
C          -7.91967972650999  -19.01805761924194    2.68568827998121
O          -8.17124854092162  -18.66363920010923    3.81014481205500
C          -7.80168829873600  -20.39440715267280    2.15641714385273
C          -7.84159732791139  -21.58677917741644    2.84884717715244
C          -7.65748856374447  -22.76973430262671    2.13153774551358
C          -7.43094538096854  -22.72999199349938    0.74139680100336
C          -7.40153504291580  -21.51934968444082    0.04749137259055
C          -7.59362656576148  -20.34984062836524    0.76201016270534
C          -7.62127850939275  -18.95818413446334    0.32296273870166
C          -7.86036708752338  -18.51344369791882   -0.94622657893686
C          -8.07665223745218  -17.15163259571489   -1.24593817128551
N          -8.28753991599200  -16.05320719449245   -1.50226082288011
C          -7.98186396208538  -19.36392410080168   -2.06697326924501
N          -8.08726360964009  -20.02124703824654   -3.00010555325365
C          -7.22725719436008  -23.94382737794007    0.03782350184615
N          -7.06376476241621  -24.92029571384727   -0.53630522438750
C          -7.69131419696826  -24.01490659987841    2.80569076821537
N          -7.72334160727139  -25.01111211938466    3.36902396072846
H          -2.49412652663950    2.76182644675237    4.74978641338772
H          -6.49611528103431   -0.19353570247909    4.32167041647861
H          -0.73283631431898   -2.49072648341241    5.14197696206103
H          -4.44607642885143   -5.83992850179105    6.92630669317172
H          -2.71998495076452   -7.16446181013615    5.41768017965425
H           0.16934496175947   -3.54762930259205    3.62080313540098
H           2.01895250953264   -5.08658361979307    2.59028989712942
H          -0.52440291639444   -9.45871184650605    2.89527197093385
H          -2.73267332080352  -11.92312106212758    2.39079358545264
H          -5.78741532985600   -8.98279447729650    2.44689083464871
H          -3.61564482502478   -6.56933769341002    3.03494416557091
H          -5.20611888071076  -12.74849888211015    2.08073718493802
H          -7.26891312482815  -10.46404760354866    2.02684670167395
H         -11.02150419684305  -13.58563097484942    2.15189352878621
H          -9.29703435999790  -15.50625455787853    1.57008607724819
H          -5.68706820453825  -12.90106803579039   -0.26038218558785
H          -4.15347949260780  -14.85322868717531   -1.20439817846383
H          -7.40395277402589  -16.47705004209963    2.72872920230679
H          -8.00551191851521  -21.60473131553267    3.91571327662097
H          -7.21344699335614  -21.51873032963582   -1.01464277118409
