108
 SCF done       -201.106735477704          0.000688547416
C          -6.60366738753398   -2.87949408726637   -0.58122178788684
C          -7.68396429727387   -2.03395735673829   -0.77937102063021
C          -8.23692828605483   -1.95214552086829   -2.05784160047699
C          -9.33370842272328   -1.08408805947709   -2.28932120449235
N         -10.21296660896779   -0.37553242488525   -2.47562076523890
C          -7.72115666081117   -2.71006594179702   -3.12788169993698
C          -8.30224437508473   -2.60075854503393   -4.41468503317099
N          -8.75378915945068   -2.52058787898901   -5.46373543787314
C          -6.63448410862603   -3.56102156182921   -2.92402895432787
C          -6.09457837606149   -3.63295286828714   -1.65699981872783
C          -4.94637830062902   -4.44786134596566   -1.20400038310836
O          -4.22106179024028   -5.11980845991264   -1.89823701465563
C          -4.80269518506468   -4.14526895383199    0.24658379528714
C          -5.83545206320021   -3.19134358568074    0.62045539483587
C          -6.07823866517048   -2.71373177680279    1.87742190244083
C          -7.02892826444079   -1.71080275986225    2.17117205424717
N          -7.74320966363430   -0.86425851105236    2.46924104012851
C          -5.41890985821398   -3.15411951541337    3.04773896063221
N          -4.96444883041337   -3.49110752984055    4.04620043002018
C          -3.74644023057245   -4.51263554406089    1.01194475589492
C          -2.76963975103866   -5.51338244299836    0.69124359123176
C          -3.04465312256822   -6.74563097663132    0.12194135770683
C          -4.30718681053974   -7.23665627472557   -0.21448198593521
N          -5.35735663262751   -7.63096022653868   -0.45784159941427
S          -1.63369981869486   -7.74297205877475    0.01926707097196
C          -0.66607439004041   -6.49227261363351    0.75558094104284
O           0.64153504628650   -6.77669200518109    0.86364198614578
C           1.57348436434723   -5.71134087643172    0.82638232447265
C          -1.39816603374668   -5.37894421316946    1.07303392283115
C          -0.93215705011557   -4.14594377079368    1.72372167994003
C          -0.32452113715099   -4.18852119558026    2.97570945308540
C           0.02194135923326   -2.99206062879526    3.59562128516742
C           0.60454705453144   -2.73667022392304    4.87583023511543
C           1.08628231920327   -3.76331658651572    5.81115545969067
C           2.64891399405559   -3.86414059941927    5.65623185413768
N           3.27460762916625   -4.87193884446832    6.45028502570442
C           0.68496031729572   -3.50177693069288    7.27995438490958
N           0.29288522968193   -4.75163264805393    7.90213516067755
C           0.69147508076039   -1.31820085452615    5.02472195786545
C           1.12579383778834   -0.52906903564577    6.08423282967573
C           1.03062075882999    0.86057825893357    5.99141378519027
C           0.60029581656624    1.44854539410594    4.79916104491347
C           0.16813850279730    0.67572361439316    3.72591903026457
C           0.18288728706533   -0.69592119287307    3.84697717577612
C          -0.24722186025100   -1.75088044569274    2.95072172465304
C          -0.84658271383474   -1.71736217862511    1.71152114351947
C          -1.18984064013723   -2.91952084031230    1.10547635554348
C           1.33292055757571    1.68781011139969    7.15714912411426
C           0.95185900856076    1.38093573836060    8.39913441307707
C           0.10620960725041    0.24656973958486    8.76386756739899
C           0.46891021091640   -0.64573539691046    9.75122983719705
C           1.68479506013160   -0.70188996359490   10.42555661323159
N           2.70494056098970   -0.78137777371402   10.94881365312681
S          -0.74588015850169   -1.86817589055003   10.01572553726533
C          -1.73910444337829   -1.15776157336578    8.77899354816937
O          -2.94349829322091   -1.65397380215956    8.45943391947261
C          -3.31766408826064   -2.88534548570759    9.03582121411620
C          -1.16697283190145   -0.04847583340026    8.20670441668508
C          -1.83534391889013    0.77640330884471    7.13921897126829
C          -3.31084613913516    0.62334163848144    7.12949445599421
C          -3.97455992003113   -0.01711905624059    6.00379504247164
O          -3.46344219823821   -0.39346180044348    4.96125738943391
C          -5.40528277363400   -0.11183236431573    6.39698858975374
C          -6.46003695135954   -0.67551583262417    5.72164665049475
C          -7.72058240907098   -0.66398062990762    6.32907235562348
C          -7.88703723608615   -0.06794331766372    7.58943811041409
C          -6.80323296993610    0.50740280540011    8.26808899141590
C          -5.56202550113610    0.47124652770121    7.66977601890968
C          -4.23874639349626    0.93585982937077    8.12591911976040
C          -3.97517564933619    1.55639684240695    9.34595898861417
C          -2.69700354132790    1.99598510799660    9.71866615542903
N          -1.66821563577779    2.37431571448854   10.06864475779773
C          -4.94279212773408    1.80053113957068   10.33020048677445
N          -5.69602433045635    2.00693093180853   11.17456803155925
C          -9.16663880347165   -0.05579687138354    8.19446143994117
N         -10.19644132919745   -0.04200010379546    8.69563135076752
C          -8.81280881047695   -1.28160130270906    5.67578825495079
N          -9.67438526616461   -1.81331346709497    5.13990961309879
H          -8.10595018621877   -1.43997955033970    0.01592933011324
H          -6.22840982785611   -4.15067161149042   -3.73176278915015
H          -3.57590854527910   -4.00190729671797    1.95272157300468
H           1.63934509309289   -5.20373236262764    1.79236878446494
H           1.30952142072038   -4.98198292649390    0.05723437440485
H           2.53109415046059   -6.17055074090274    0.58735040733210
H          -0.16949337179218   -5.13975007793009    3.46440468956572
H           0.66333548359485   -4.73573857060880    5.53795763343896
H           3.08511159783648   -2.89701816375432    5.91627370588717
H           2.87042423160694   -4.07272395220006    4.60606800889276
H           2.92814569398817   -5.80160866482897    6.25103481406038
H           3.22241471261286   -4.68350701995022    7.44262833336800
H          -0.18867457998200   -2.84581933496008    7.28651520046723
H           1.50283444846386   -2.98824871639538    7.81167082041358
H           1.09459579818622   -5.34753802167865    8.07820645689377
H          -0.16423335608600   -4.58396839705399    8.79084335208561
H           1.53959638936666   -0.96575566257936    6.97777228131533
H          -1.54221235276826    1.82107863079924    7.28841230303269
H           0.56548806473587    2.52570551885182    4.73008841479466
H          -0.19255349961788    1.15005414686687    2.82622176758920
H          -1.06001024327422   -0.78053947392570    1.22073139100855
H          -1.66086722468592   -2.91451593742397    0.13283841399358
H           1.88287281142239    2.60115161491086    6.97797023271283
H           1.25672785699705    2.00448324259686    9.22823773094446
H          -3.34672132140693   -2.81480190422884   10.12821507144947
H          -2.62778657977552   -3.68229813754690    8.74079920822773
H          -4.31243990141406   -3.10437683852735    8.65401953735583
H          -1.48476252426908    0.45868936985940    6.15183140368573
H          -6.32261681270990   -1.12486636804908    4.75218808041141
H          -6.96781881202357    0.95245086204667    9.23689404966629
