114
 SCF done       -217.889049528672          0.000936664418
C          -5.04350976392246  -10.93698255432984  -11.97601381632586
C          -5.34757191147166  -10.82161097245135  -13.32272310443259
C          -4.91054522189130   -9.68664192862908  -14.00836230708264
C          -5.21752275840919   -9.54391108650643  -15.38437624825052
N          -5.47171830667035   -9.43475433090689  -16.49544075919327
C          -4.17665018550636   -8.67601245190977  -13.35760629577209
C          -3.74413390966899   -7.53871029673608  -14.08084337610793
N          -3.39100527380709   -6.60843159395786  -14.64772962218482
C          -3.88148944013545   -8.79176551684750  -11.99851545399417
C          -4.31636242635971   -9.91783768170099  -11.33333409886956
C          -4.13947933943406  -10.25386651715970   -9.90392114621762
O          -3.69904511243899   -9.51982401987780   -9.04994933270887
C          -4.77718119306418  -11.58809640107810   -9.73481096989876
C          -5.34507476083945  -11.98760683818684  -11.00400476537804
C          -5.98307232469523  -13.16879675461528  -11.27992776082539
C          -6.49323145177710  -13.51795644438021  -12.54839449520593
N          -6.93396706589287  -13.85272689019847  -13.55364528588284
C          -6.21229865068853  -14.19723492508082  -10.34121115967921
N          -6.42915101128649  -15.07371211120886   -9.63232279788881
C          -4.92574834930127  -12.21413227278906   -8.53019356561656
C          -4.14472724827192  -11.90577405454049   -7.39246092645002
S          -4.78699998078419  -12.08183426949968   -5.76612789404598
C          -3.30416604523885  -11.52228110666928   -5.01818021657370
C          -2.36842183215594  -11.28099261587715   -6.00954858768385
C          -2.83268197240641  -11.48732409822955   -7.31810348335062
C          -1.70533989845999  -11.27132092024553   -8.25096429934885
O          -1.63611665417878  -11.41463150163616   -9.44380782100606
N          -0.65814816277010  -10.88908138351083   -7.42742058486893
C          -0.96283977844345  -10.85715488306560   -6.06760486565889
O          -0.19868342386806  -10.55101546549124   -5.19047370006451
C          -3.14792585127424  -11.29545713627454   -3.63316041730365
C          -4.13044199263032  -11.48789228570440   -2.71939439941665
C          -4.09158583923033  -11.13551355071827   -1.33227352903425
C          -5.24651027920814  -11.28068762593470   -0.58468607476359
C          -5.30504597343489  -10.81561174936755    0.73984979555829
C          -6.34652754172913  -10.77484406827935    1.66262605218829
C          -7.72803261431853  -11.31855123793938    1.54409420240779
C          -8.45556973753287  -10.85885876501116    0.26588817389681
N          -9.86746768240190  -10.69236303721551    0.55853169458212
C          -7.69726490778585  -12.85711323954990    1.65073601925070
N          -7.32825678138480  -13.23316273362894    3.00174184951329
C          -5.83499707014290  -10.10099112135355    2.83244806541953
C          -6.43857294316471   -9.75225510684475    3.98401128952848
C          -5.72606794217425   -8.95914561779907    5.02361207524063
C          -4.27351617376656   -8.71796856565891    4.73867490429679
C          -3.68163362558433   -9.09447452026021    3.59065133818576
C          -4.42733505712977   -9.75957760128018    2.58819717497415
C          -4.11577612039075  -10.19883704715977    1.31833336313036
C          -2.92651048946992  -10.12572026163319    0.55543704366529
C          -2.91809273368846  -10.57562515447188   -0.72308081814157
C          -5.85575291709057   -9.59724049738074    6.37742953457216
C          -6.35018933642854   -8.94721523870639    7.43700230565182
C          -6.43764283968011   -9.47681726296890    8.76301685909393
S          -7.10604311380172   -8.46664173626648   10.01782180846286
C          -6.87611124328241   -9.67177346284165   11.26563162286017
C          -6.31107241625200  -10.79928471054487   10.70006234490524
C          -6.06592014261753  -10.68714071939670    9.30860993270409
C          -5.43874856584178  -11.93565766011776    8.84651360617541
O          -5.06838903690583  -12.27805899450593    7.75247800335506
N          -5.34868698209945  -12.71609209430872    9.99129725926631
C          -5.84564481624601  -12.12565432079774   11.14039630608507
O          -5.86927446562799  -12.65489448189967   12.22500249531840
C          -7.21152418238159   -9.34668185926115   12.60423086678662
C          -7.00796423566015  -10.18587386455334   13.64998588226995
C          -7.25373668254305   -9.82703693820343   14.99587476570431
C          -6.80395955737206  -10.51594425740035   16.08150491071151
C          -7.40088044149400  -10.30215566603566   17.42416004644390
O          -8.11025544926831   -9.38985195999290   17.77411284796393
C          -6.98414078654873  -11.48366028486468   18.21736389326662
C          -7.36042170037721  -11.83331914025931   19.49680728205704
C          -6.86266616389673  -13.02469984239071   20.02750703386757
C          -6.00631339786616  -13.83783107373625   19.25997809208359
C          -5.62239396641438  -13.46935299994175   17.96925902875869
C          -6.11099720390060  -12.28235577942584   17.45058688258326
C          -5.86635815145134  -11.61746289571303   16.16960874918750
C          -4.80390043205539  -11.85958356797737   15.34193467344760
C          -4.39978375221896  -11.00894276660711   14.28853958506031
N          -3.97550248292461  -10.32028280834952   13.47488563779957
C          -3.90074811711249  -12.93030550402480   15.51901859170649
N          -3.14910902275147  -13.79092378227098   15.61956528597194
C          -5.52804349125835  -15.05415006956694   19.80805537544338
N          -5.14058910837139  -16.03979523399844   20.24261657337821
C          -7.22491415114659  -13.41961151563321   21.33791366558853
N          -7.52954980442660  -13.72147882941516   22.39964104288407
H          -5.91025165382081  -11.57199195270892  -13.85492412599441
H          -3.32473816285124   -8.02505503634682  -11.48174355470075
H          -5.67928816005364  -12.98102624746786   -8.40594960431902
H           0.25561408137055  -10.65076088443378   -7.78636956156999
H          -2.17876226003798  -10.90455119585537   -3.35718652930581
H          -5.07112358786676  -11.89455422706993   -3.07574080524295
H          -6.12020609202342  -11.72262991226289   -1.03961181638942
H          -8.31947521752171  -10.95342037970136    2.38744606490057
H          -8.26425750439816  -11.57408777820615   -0.55096405151240
H          -8.06760906831423   -9.88347843104516   -0.04062467881194
H         -10.28719081485385  -11.58184707995522    0.80681792007058
H         -10.36181620108144  -10.32865240102790   -0.24804329080974
H          -7.01805605698608  -13.25549820939111    0.87771880778130
H          -8.69922445092648  -13.25337228104886    1.46252404135352
H          -6.38101227248974  -12.93225628169876    3.20669504183327
H          -7.37107353315186  -14.23848888761050    3.12172256217540
H          -7.46728621579230  -10.00867557237867    4.19341916739615
H          -6.22740012478567   -7.97765446059968    5.06586557470041
H          -3.72252424596602   -8.20919857848406    5.51434862057172
H          -2.63639101171651   -8.88564420112625    3.41639481522181
H          -2.03881985811592   -9.69902614544822    0.99789998686551
H          -2.01446157484289  -10.51119961739677   -1.30704583477425
H          -5.48382143866654  -10.60752227645953    6.46341213763297
H          -6.71490002732452   -7.93233922392631    7.33150867801348
H          -4.94555136431789  -13.64264993648472    9.98890555060754
H          -7.58401689493847   -8.34494924784777   12.77605590207960
H          -6.63583660080114  -11.18054687752462   13.45305411967291
H          -7.89129280089720   -8.97322978940902   15.19776312632656
H          -8.02300394007547  -11.20369651120320   20.07109127197522
H          -4.96914997902639  -14.11715224249815   17.40618861029266
