89
 SCF done       -185.249975860599          0.000527897606
C          -4.45192120619460   -5.68841289808439    7.17129972005130
C          -4.51357219884431   -5.71946367589291    8.55368162019694
C          -3.31574519477132   -5.73202012180553    9.27279353668606
C          -3.35550578733862   -5.77083043143101   10.68864140778203
N          -3.39488594764398   -5.80623303305904   11.83220095943753
C          -2.06962175719589   -5.71197050674072    8.61800376432075
C          -0.87246717098852   -5.72449028859617    9.37367484940969
N           0.10741883091340   -5.74167011214580    9.96584289908249
C          -2.01152389722606   -5.68599379887786    7.22357358655591
C          -3.19999882779108   -5.67370982292152    6.52584153768712
C          -3.40407577204632   -5.67862437325160    5.06448905001867
O          -2.53485006039745   -5.76703704767224    4.21216123835528
C          -4.85336318494130   -5.67151731436909    4.85665326472613
C          -5.50351071848996   -5.66617328615007    6.15275612939875
C          -6.84720472408362   -5.57841821913076    6.39863810132102
C          -7.41622432672458   -5.55781681362996    7.69086469044541
N          -7.93356206874821   -5.54272875476613    8.71456973916931
C          -7.84423198233289   -5.47303099919132    5.40433312799638
N          -8.70281728600433   -5.36871906778762    4.64978211488367
C          -5.47376034847097   -5.82669009197652    3.63918224506401
C          -4.92279241871569   -5.67769977514480    2.35990635805919
S          -5.76718855164642   -6.45133477126760    1.02231560132276
C          -4.63924391555314   -5.84467282308503   -0.15627475056559
C          -3.69584886247157   -5.03928216701333    0.46551424982204
C          -3.83767411889777   -4.95396034033414    1.86388103824483
S          -2.75262668889740   -3.88842942195535    2.67774425978434
C          -1.92861954838162   -3.31596852192679    1.23339460060914
S          -0.76689983417434   -2.18163311804406    1.28904758098452
S          -2.42365519730046   -4.10207824187573   -0.25702231071155
C          -4.72695977192728   -6.20597112417466   -1.51651416370207
S          -3.49179571106391   -5.70676813308649   -2.65615154777409
C          -4.29325314998548   -6.57405388956093   -3.89668384399144
C          -5.46327661914215   -7.20506196817784   -3.45656853295926
C          -5.70592949913928   -6.99692482401877   -2.11102179694012
C          -6.11975264539216   -7.96121629751962   -4.58864698453634
C          -6.21926004230931   -9.45694376390535   -4.27752521801575
C          -7.50021817344059   -7.38164619671428   -4.91289558031746
C          -5.13703848074916   -7.69360387857319   -5.70601585800147
C          -4.09359954076813   -6.87082509130198   -5.25913829393038
S          -2.93638526308756   -6.54934014098384   -6.47461376283824
C          -3.84159381622542   -7.53831038675333   -7.60772795540093
C          -4.99448441486294   -8.06669038501339   -7.02983370254672
C          -3.31471630676801   -7.71021559825588   -8.90392970145465
C          -3.85847717738582   -8.45579819924112   -9.90321594179506
C          -3.24645225498156   -8.60804493685140  -11.16405922825050
S          -1.70183439742495   -7.89880556981570  -11.55445199996216
C          -1.70934791082333   -8.55506333904499  -13.18141951065574
C          -2.86330666144693   -9.30795961893019  -13.36615930745643
C          -3.72112312593026   -9.32193783318673  -12.25491188715913
S          -5.19583824398302  -10.22767805190949  -12.41979825589453
C          -4.89390003303226  -10.76406296319252  -14.06562354439719
S          -5.92266784226302  -11.71973965671244  -14.87970303900855
S          -3.38374138201904  -10.18193919232490  -14.76717405845861
C          -0.63878135145238   -8.43515529306651  -14.08341024457815
C           0.42618633454386   -7.58148061736125  -14.03029546411689
C           1.69565185356569   -7.93216999709586  -14.71537747218514
O           1.86849831468096   -8.78701465208973  -15.54996504212025
C           2.71551251715906   -7.04945582875069  -14.09463158365662
C           4.08273927464919   -7.05756843092919  -14.26948158097969
C           4.84632811733854   -6.15078775513724  -13.53091374407702
C           4.22218894414632   -5.26035960713835  -12.63637321192901
C           2.83464632724043   -5.24868864271064  -12.47862593482256
C           2.08404030698390   -6.14766240260591  -13.21456233246860
C           0.63900766502637   -6.36149603027756  -13.28760996620884
C          -0.31719811326794   -5.43133081675160  -12.97371173464243
C          -1.66609805179452   -5.56777052207203  -13.36522002232493
N          -2.75667401972892   -5.63728461421485  -13.71553241975500
C          -0.04554917673078   -4.21436687549600  -12.31716619351019
N           0.13021913677301   -3.22759482122165  -11.75877024730907
C           5.01572418482695   -4.36539023820582  -11.87630195822614
N           5.64850373523297   -3.64455929537218  -11.25146429798642
C           6.25484626210424   -6.13243392906897  -13.67450267076449
N           7.39293773578579   -6.13383447458590  -13.80018745698397
H          -5.44815165233388   -5.73953163666558    9.09123139593275
H          -1.06444378176370   -5.67484900562850    6.70588799256203
H          -6.50926083785872   -6.14401638396401    3.63990186145831
H          -6.53791796159498   -7.38809431410524   -1.55345988227742
H          -6.87114627416921   -9.61682493167111   -3.42285222631655
H          -5.23688124532685   -9.86342274166416   -4.04861630027118
H          -6.62649553032913   -9.98912374105003   -5.13312289869909
H          -8.16838241392244   -7.51600750031199   -4.06640658678307
H          -7.92258059347975   -7.88709975105030   -5.77734414831189
H          -7.42382487339339   -6.31935458469018   -5.13256645781626
H          -5.67749383975575   -8.69650205995465   -7.56920649023381
H          -2.37857690893748   -7.20244292210101   -9.10347075683275
H          -4.79805752884808   -8.97238280387402   -9.76853602655227
H          -0.60586008960288   -9.18320192505087  -14.87043134749589
H           4.55076544658278   -7.74734615102831  -14.95523367886377
H           2.38449331747022   -4.55711382552768  -11.78361736674389
