132
 SCF done       -243.166663165959          0.000555490042
C         -11.32141433777850  -16.45496887698867    5.21809433929194
C         -11.70388685465569  -17.68724082101245    5.71990618448340
C         -11.10675443019424  -18.14067024966441    6.89848503987676
C         -11.47722037411513  -19.40249537172994    7.42511293695825
N         -11.77774119997515  -20.42448683799188    7.84459456600447
C         -10.13912163013546  -17.37021463588622    7.57044828788889
C          -9.55155263156122  -17.85367342013809    8.76349564342315
N          -9.06043365905898  -18.22491528581955    9.72933753623045
C          -9.75331563572933  -16.13005703719313    7.05796924663139
C         -10.34893930727405  -15.69483041774676    5.89409467094004
C         -10.09962788401156  -14.44029196570345    5.15012114024260
O          -9.26812723283171  -13.59741585686186    5.43657396072255
C         -10.98165135253752  -14.48711757206290    3.97964567353892
C         -11.75018515820779  -15.71359537113315    4.03178354447865
C         -12.75346180139110  -16.09801989098039    3.18145182075799
C         -13.47637741611124  -17.30359973185217    3.30606826754281
N         -14.09169943709215  -18.27146307043828    3.34901749603142
C         -13.22295961244397  -15.35581329815492    2.07604102874734
N         -13.67083737090552  -14.82276985188008    1.16305043107289
C         -10.98451809277708  -13.60940205450376    2.92295151465691
C         -10.38475606768579  -12.34684726672946    2.76054295650825
S          -9.91206852184314  -12.01579687859219    1.10319470452277
C          -9.15495528179599  -10.52698976832733    1.54902445980703
C          -9.33272795506434  -10.26987370206417    2.90676382325385
C         -10.05934491547287  -11.26009741627176    3.58088999323793
C         -10.51577179424556  -11.06552772784084    5.00125609963088
C         -12.03229759781480  -11.18967155731438    5.11593797592158
F         -12.67036556980078  -10.44883036802555    4.19600866468130
F         -12.50833041239104  -12.43760544437634    4.98697318237678
F         -12.47221100418340  -10.76673762237476    6.31255009952992
C         -10.13569930772388   -9.68224542283663    5.55245453055148
C          -8.73832668977645   -9.29244934202854    5.09943893257459
C          -8.75652172169448   -9.07082023784583    3.59223967703807
C          -8.46097501435829   -9.72640794256893    0.60516077211585
C          -8.34491965361370  -10.04767021486466   -0.70508165231221
C          -7.62687733433164   -9.32856416748913   -1.71630462307718
C          -7.54398736949968   -9.87972680701643   -2.98011162634903
C          -6.79655613758784   -9.25135493159127   -3.99258378744803
C          -6.52175559655012   -9.61662358777271   -5.30453294764872
C          -7.00538081221318  -10.80031437083453   -6.07155915382355
C          -6.48611519433514  -12.11900272583585   -5.46414420776966
N          -6.44390152361951  -13.13393593284672   -6.49810459656935
C          -8.54082911978578  -10.79066496251911   -6.19088593875161
N          -8.98851090734700  -11.81454539287717   -7.12297140624383
C          -5.62571019697738   -8.61402076994896   -5.83318692873477
C          -4.99557631760383   -8.52706507094889   -7.01879558124158
C          -4.02834221633150   -7.43540275625880   -7.30877664735640
C          -3.93274738387222   -6.38424504864693   -6.24102011217857
C          -4.57948323379342   -6.48210530076760   -5.06662523196449
C          -5.40828610224828   -7.59760084360701   -4.79527067349975
C          -6.11690271636080   -7.99688759285255   -3.68253269717411
C          -6.25172046097724   -7.43120878440660   -2.39242473589569
C          -6.97730278210622   -8.07609013961956   -1.44720588005900
C          -4.25797410387848   -6.76125110707177   -8.63377773724699
C          -5.41471310849078   -6.77651341165303   -9.29387637020008
C          -5.64647179741771   -6.17143056922748  -10.58444755356833
S          -6.62577064963268   -7.08177802389192  -11.68480076272379
C          -6.30608307190159   -5.96710499830384  -12.98173778612593
C          -5.50979178367347   -4.91870145141505  -12.54121834515034
C          -5.16703269248296   -5.01533567093257  -11.17907900561688
C          -4.42710305733461   -3.91172976321253  -10.46238161138846
C          -5.29951214126638   -3.32031158529061   -9.35332881243314
F          -6.48110512256059   -2.89377299941228   -9.81476515316957
F          -5.56858675372030   -4.16321454828636   -8.34690249980308
F          -4.70148906391402   -2.25904790664039   -8.78402216136834
C          -4.04805668053953   -2.74425452616789  -11.39368931477804
C          -3.74098375118791   -3.22444081277416  -12.80361363740794
C          -5.00775218767477   -3.81600455529537  -13.41355949740259
C          -6.83542764646304   -6.15804064133952  -14.27591215132439
C          -7.69307026430487   -7.15784968728924  -14.62234838400971
C          -8.19674276080301   -7.40702883639856  -15.91511742119098
C          -8.23483212411049   -6.63091638165295  -17.04407483106327
C          -8.41472858607353   -7.32086834588531  -18.34785608340858
O          -8.73501862047600   -8.47237733979050  -18.52722445184810
C          -8.06422905346509   -6.31310359765371  -19.37650958148637
C          -7.94989031666325   -6.47721333465621  -20.73987041150424
C          -7.55985335328490   -5.37582974334238  -21.50482251220590
C          -7.29354400397229   -4.14172955129398  -20.88176239418561
C          -7.42643325501665   -3.98389782762423  -19.50048028259326
C          -7.81757330758694   -5.07742524097788  -18.74763555347988
C          -8.05965880301158   -5.22363869195142  -17.30926555243653
C          -8.30514591273209   -4.17531058207340  -16.45699199126253
C          -8.78052428815178   -4.33259784862196  -15.14071801855786
N          -9.17576012744177   -4.41541578031389  -14.06638477237938
C          -8.15948653813946   -2.81826027741190  -16.80786167747525
N          -8.02129278288127   -1.69951742772843  -17.02523092858020
C          -6.87471606918193   -3.04021714480046  -21.66842406128438
N          -6.52772729871413   -2.14557110519922  -22.29282695957062
C          -7.42139267558060   -5.50268400670844  -22.90776314654658
N          -7.31124113632447   -5.62514376943744  -24.04103534542049
H         -12.43898774084011  -18.30735964651419    5.23247994998211
H          -9.00899052157012  -15.52984649098397    7.55901697934511
H         -11.44543114943908  -13.97462931100775    2.01156967099871
H         -10.06655022794554  -11.84778567736790    5.62735807655090
H         -10.19764617871384   -9.70598105249445    6.64084187417611
H         -10.84979375763472   -8.93745810648837    5.19079724950109
H          -8.03661621671386  -10.09006637325705    5.34914955114194
H          -8.42023149771415   -8.38184981052060    5.60733089684397
H          -7.74353056689982   -8.89119597240911    3.22661623698651
H          -9.35815795974155   -8.18768159595314    3.35490684374105
H          -8.00978877956660   -8.82626402542339    0.99437479696118
H          -8.82293988412762  -10.96277629502848   -1.03682301185164
H          -8.03676829918803  -10.81939212544353   -3.17933525508527
H          -6.59614159938023  -10.75356260070044   -7.08559615386582
H          -7.11369488680328  -12.39321445051265   -4.60151433293949
H          -5.46485528602834  -11.96554672988371   -5.09785202649734
H          -7.38250407930286  -13.25546256923072   -6.87011238733473
H          -6.13129957766938  -14.01942894373172   -6.11530322242667
H          -8.85825035864364   -9.77380176802052   -6.48028784920830
H          -8.98967096763521  -11.01083159313086   -5.22004441856856
H          -8.68219782189445  -11.58875270029355   -8.06427353255335
H         -10.00150091413439  -11.86461042022695   -7.13106973587575
H          -5.12094098177467   -9.27344986585510   -7.79171317439077
H          -3.03771090017813   -7.92066740968048   -7.37401060444560
H          -3.30138694812096   -5.53827363276002   -6.46298099104480
H          -4.47105402802358   -5.71354638469372   -4.31572669557984
H          -5.76576356176827   -6.49190493206903   -2.17334313868744
H          -7.07651336106915   -7.64396102681458   -0.46419611954798
H          -3.40603051949678   -6.22182506989534   -9.02169409974448
H          -6.24205907105936   -7.35593461852452   -8.90620233451184
H          -3.52909443262932   -4.30645091018098   -9.97797553994085
H          -3.19336828158779   -2.21539764512823  -10.97050038983959
H          -4.88239731388709   -2.04079510387258  -11.44474737072044
H          -2.95355891464906   -3.98079218993514  -12.78105160005523
H          -3.39318034915267   -2.38663807516623  -13.40765781087310
H          -4.80306596210401   -4.19189021161010  -14.41765441805544
H          -5.77471591929892   -3.03976019840043  -13.49852856425268
H          -6.48049990211566   -5.47357832806857  -15.03389775927783
H          -7.96646004346213   -7.87508367434695  -13.85900370537827
H          -8.55634293278772   -8.41848679412740  -16.08486694875587
H          -8.15356206208014   -7.43085122857164  -21.20257714124628
H          -7.21088901998514   -3.02440363580881  -19.05738580824536
