94
 SCF done       -178.648762878717          0.000285848435
C         -14.13022928495930   -3.61222462434297    2.38801579987906
C         -15.25190117908535   -3.25897440068650    3.12176879022117
C         -16.48010417004589   -3.82202541665332    2.77206036221426
C         -17.63879410214999   -3.47539896165652    3.51086380224128
N         -18.57074137362569   -3.19041452094957    4.11140587489332
C         -16.59055038301199   -4.72713209671890    1.69854984666555
C         -17.85048334600037   -5.28293242370947    1.37063521486018
N         -18.86152201386180   -5.74205615341547    1.09065358747525
C         -15.45967838102020   -5.07324596234909    0.95757988824664
C         -14.25150447332721   -4.51393672095975    1.31531210932428
C         -12.92717877360736   -4.72379601782380    0.67652935761694
O         -12.71680263878619   -5.37883898631793   -0.31218832758845
C         -11.98395674320525   -3.87825593151722    1.46043738505541
C         -12.72926432985328   -3.21185372094971    2.51318033079058
C         -12.22457008659959   -2.40661090418995    3.49998232101499
C         -13.00547401241877   -1.80668707331083    4.51219770665044
N         -13.58368753280796   -1.28710175083868    5.35612222018582
C         -10.86379738589128   -2.07030318874488    3.67137867642299
N          -9.78092530170785   -1.75860061583035    3.89069637275996
C         -10.66968451494811   -3.66575003645420    1.16847858295377
C          -9.86598192748226   -4.39350354159124    0.26144265065941
S          -8.28139239778136   -3.75373306607357   -0.22222561107362
C          -8.09989875227437   -5.24425568939923   -1.11910953262927
N          -9.13676060984550   -6.03655099257940   -0.98442504285244
N         -10.08419782396250   -5.57438710178151   -0.24143817412171
C          -6.93899375986139   -5.57994374050300   -1.88776610286219
C          -6.90882002053422   -6.78960227502565   -2.55063669747903
C          -5.76148099038500   -7.15948985531072   -3.27329796612544
C          -5.45665770919228   -8.30918878618299   -3.99523235485993
C          -6.30275066308004   -9.50875512593840   -4.23941919558966
C          -6.58389530937862  -10.26309940988361   -2.92145946286390
N          -6.85898928824515  -11.65080417679073   -3.22360028775447
C          -7.60781693582219   -9.14252945368780   -4.97170386507204
N          -8.29713252842179  -10.34784193647366   -5.40595740217937
C          -4.09632342199953   -8.15696982402192   -4.45725738472695
C          -3.29414365459783   -8.99821693065715   -5.13570015867434
C          -1.87857030909432   -8.64876727975276   -5.44239594502894
C          -1.46562779074584   -7.27565087956962   -5.00547375119955
C          -2.28541708426445   -6.44381551192822   -4.33617886739484
C          -3.60270701431770   -6.84581189205981   -4.01276925018848
C          -4.62093402050121   -6.24854133453635   -3.29739739703311
C          -4.69901726325230   -5.00451599585608   -2.62850059722896
C          -5.82570561542649   -4.68213274520700   -1.94584052401188
C          -1.61399340544063   -8.78264604705895   -6.91593197661370
C          -0.67968877780541   -9.58690345558440   -7.43019053493023
C          -0.41396001115550   -9.66965242268696   -8.83449508518236
S           0.77565869114510  -10.77782571475270   -9.48837528611151
C           0.31138169592345  -10.14241132322175  -11.05947024947622
N          -0.60719982898109   -9.22011407280842  -10.96815929617764
N          -0.99765744490737   -8.95866292648637   -9.75726373657014
C           0.94806645539877  -10.55884047318952  -12.25860238902332
C           0.53621425146047  -10.31746623078350  -13.52659915158319
C           1.50792061494437  -10.44314401288380  -14.65183846112073
O           2.57651473928212  -11.00096053286933  -14.63193304076773
C           0.89624728303789   -9.68053341021242  -15.76363386165655
C           1.44150482350826   -9.37120634479659  -16.99221635096319
C           0.68286772918140   -8.59915294828381  -17.87343787458779
C          -0.60042749922805   -8.15344864792935  -17.49988631030004
C          -1.14776506428905   -8.48057440235348  -16.25839095126159
C          -0.39446605663470   -9.25249434575059  -15.38956039450753
C          -0.70032460110283   -9.77380767876223  -14.05844327914971
C          -1.95125557613421   -9.93668286556285  -13.53586335415895
C          -2.22294891235869  -10.71021301714853  -12.38543596060057
N          -2.50671468317930  -11.40117682096338  -11.51483293619637
C          -3.12742981297298   -9.45631555436245  -14.15102007054118
N          -4.10537024688844   -9.07748751674158  -14.61526382436077
C          -1.34715910793344   -7.35435013946690  -18.40172347819738
N          -1.95404538725276   -6.70544852673795  -19.12336621724702
C           1.20762827849139   -8.25607156471017  -19.14308365247036
N           1.64986737381043   -7.98792335404195  -20.16460535173044
H         -15.20922296999219   -2.56605869046713    3.94675062431038
H         -15.52509915867545   -5.76209425008586    0.12910945314739
H         -10.14909929245550   -2.86368691948401    1.67519565611918
H          -7.76627392075354   -7.43830996282953   -2.48163334710030
H          -5.75189081777116  -10.20629768018039   -4.87795133802118
H          -7.39902657063768   -9.75390233242809   -2.38447292470509
H          -5.69046515588214  -10.22341578180615   -2.28774001471760
H          -7.66019052250842  -11.69764220188993   -3.84790712693945
H          -7.06410386609846  -12.17240674563610   -2.37945884227416
H          -7.35870008295994   -8.46215862161509   -5.80432029258771
H          -8.27646137761825   -8.60689811591368   -4.29510200920369
H          -7.76518575788293  -10.81499249022815   -6.13375414817786
H          -9.20708798261468  -10.11497364971273   -5.78813391830356
H          -3.62963868274548   -9.96974344708634   -5.47118358755801
H          -1.24479323772740   -9.38293644016093   -4.92011830199301
H          -0.45755511058073   -6.98709667358380   -5.25955067646197
H          -1.94324316721764   -5.46728963153550   -4.02669175816276
H          -3.85849429139083   -4.32795323902759   -2.66166755737529
H          -5.90210688559725   -3.74021417459627   -1.42265358009808
H          -2.20356804911735   -8.15694202341037   -7.56936350682208
H          -0.07637796307432  -10.22436893856863   -6.79830259421928
H           1.90922092806583  -11.04787599073594  -12.14874644743468
H           2.42850903650015   -9.71432929734738  -17.26302489731635
H          -2.13054570361546   -8.11878129923867  -16.00000276997363
