146
 SCF done       -244.086175994232          0.004827088869
C          -1.33260577786527   -1.01074530358097    0.15371076002423
C          -0.22617853625538   -1.83859999597771    0.06606958014252
C           0.72322983743516   -1.56512742176355   -0.91403742148196
C           1.83959882818110   -2.42034467451571   -1.05755067534240
N           2.74160301808846   -3.12018440637203   -1.15426092749560
C           0.58782891305079   -0.45331957216193   -1.77344262980729
C           1.56643270838812   -0.24548271802210   -2.76896379772768
N           2.35410849859111   -0.11977796388134   -3.59190129039054
C          -0.51359026744939    0.39527501684614   -1.66179604084613
C          -1.46834620453090    0.09173095508385   -0.71324942601547
C          -2.77504284998891    0.75181699034364   -0.46670853968947
O          -3.20240667385835    1.75386386571815   -0.99100572544474
C          -3.47296644942285   -0.14206151236661    0.49015951854770
C          -2.50379507994962   -1.08420989088334    1.01528441423070
C          -2.57872073623727   -1.78458468716040    2.18865114687299
C          -3.66308494037905   -1.72903982039684    3.08706064222164
N          -4.48156878472090   -1.71930215836538    3.89191031830986
C          -1.54674928987974   -2.61657839682065    2.67023043413519
N          -0.74262584181652   -3.31310798604580    3.10149545691486
C          -4.82468236454216   -0.11378856237007    0.59906542578677
C          -5.69385316447736   -1.14121848363992    1.11369456293385
C          -6.84621123966041   -0.74714331977420    1.81628129669319
O          -7.13918026466259    0.58229096334822    1.96775696513206
C          -6.35344719702169    1.31580591868770    2.89577690323436
C          -6.54076426913508    0.85035766675866    4.33226350311252
C          -7.73328369417069   -1.68177599375273    2.36814071225814
O          -8.74685033126639   -1.13702243790623    3.07764747200243
C          -9.92882674270769   -1.85946049912897    3.38111015748843
C         -10.92600936991657   -0.85401919133144    3.93741493992072
C          -7.48164829383750   -3.05565342731898    2.16733802166323
O          -8.33500702320179   -3.94079569690761    2.74983797216159
C          -8.21015770489824   -5.32998547978071    2.51032553844071
C          -8.74336453343285   -5.74178553465233    1.14108504385218
C          -6.37395233823798   -3.43140740781904    1.41516984932494
C          -5.47760509768911   -2.51426373971340    0.89252467078150
C          -4.36797878059175   -3.01265850034359    0.05915468698455
C          -4.14974240819492   -2.51810431090970   -1.19781069267501
C          -3.05655111104619   -2.97706725937800   -1.97297990674350
C          -2.62368314652225   -2.68809707091129   -3.25872739751017
C          -3.14974806882288   -1.79222728315369   -4.32775031164794
C          -4.64510706734059   -1.47354529153716   -4.22866052403886
N          -5.11609293574090   -0.89696460479605   -5.48124958606844
C          -2.31272873535922   -0.47828568282135   -4.37913726186618
N          -2.48085788867936    0.30750928855907   -5.57389837380473
C          -1.41929369522405   -3.46338974459161   -3.47197465134928
C          -0.63748084278787   -3.59706770507043   -4.55988182304364
C           0.50088553366990   -4.55313274185855   -4.58148514090032
C           0.85092649680666   -5.13329474422491   -3.24691419178197
C           0.04835753190702   -5.00135103398970   -2.17265239457148
C          -1.12907409092330   -4.22200853011537   -2.25299321908407
C          -2.14920361473851   -3.94532862194648   -1.36088438073453
C          -2.42565381751947   -4.46540175691738   -0.07759724500429
C          -3.52019197574415   -4.02914422729120    0.59994362509360
C           1.69896785124733   -4.04357402908144   -5.34303402582511
C           1.97300027236270   -2.75977240352503   -5.53480567338305
C           3.02765667522919   -2.31624587576556   -6.46377400915810
C           4.38070429448113   -2.59379143635989   -6.28588341082348
O           4.88531791144428   -3.21283779355768   -5.18310563990142
C           4.33823372235795   -2.95135108352035   -3.89376346181143
C           5.47037941632923   -2.89318767606132   -2.87829987191675
C           5.32048255203072   -2.27206595856519   -7.29599206459304
O           6.65542947932641   -2.45162941879798   -7.16409303220715
C           7.30206070719240   -2.27438677275542   -5.90871107633508
C           8.75336225559157   -1.92065317128819   -6.19895044684924
C           4.85871491914148   -1.78568950022775   -8.53964484730903
O           5.61401283782907   -1.52122106747513   -9.63454733287663
C           6.81985264487193   -2.22042291831932   -9.90993963808228
C           6.61060121972999   -3.72308316891612  -10.04445724263065
C           3.52595877425280   -1.43882052520036   -8.66415059098917
C           2.60807866513921   -1.64203863669759   -7.63433053397102
C           1.22724843847777   -1.31399538174131   -7.79206477786638
C           0.60930400455293   -0.42863283427301   -8.62203005227439
C          -0.85179378537585   -0.54819655592601   -8.81299189166404
O          -1.62695584765222   -1.19763530379074   -8.13884068312293
C          -1.15929231771592    0.25116126007971  -10.01709164480567
C          -2.35009609365365    0.35919045009472  -10.70274649555442
C          -2.37150775033784    1.12564269925126  -11.86977285961310
C          -1.19983986956138    1.76615791263839  -12.31791142205079
C          -0.00469966320631    1.67169280073822  -11.60147015556367
C           0.01078414142410    0.91307786566520  -10.44398822318622
C           1.08221404876810    0.63447485222114   -9.48501094017657
C           2.19267515159738    1.41187288202580   -9.30347986676735
C           3.06997404781341    1.29836893528766   -8.20167781937207
N           3.78134631034779    1.30846649065966   -7.30237625284699
C           2.53678124721076    2.48726844494563  -10.15012865036148
N           2.85207363425991    3.35764819516047  -10.82854424513276
C          -1.23495280897446    2.50843067430157  -13.52455343156320
N          -1.25872706934277    3.10118705595944  -14.50398838068041
C          -3.56976188290433    1.24520936705282  -12.61310041435099
N          -4.54736728940770    1.32647957778847  -13.20445851362938
H          -0.09742939131712   -2.69565177908323    0.70694800214974
H          -0.62388681620819    1.25114635685682   -2.31049575770630
H          -5.32038738732753    0.76375153939609    0.19292868344515
H          -6.69299102334442    2.34715995471669    2.77347806869542
H          -5.28989719519987    1.25647681140957    2.61727531012278
H          -7.59950082565091    0.81996466158395    4.57299204991074
H          -6.03595667395133    1.53670340366564    5.00687071407190
H          -6.12105881768156   -0.14460125764489    4.46232819500718
H          -9.72142371530358   -2.64017895972767    4.12135649292294
H         -10.32725327383590   -2.33031454445408    2.47419957833018
H         -10.52259346012208   -0.38973761116664    4.83274419146492
H         -11.85749010220165   -1.35467449146777    4.18424813504286
H         -11.11949508502732   -0.07701092934901    3.20289266733241
H          -8.81964640911604   -5.78718111051344    3.29509423665845
H          -7.17335265521598   -5.65788247514698    2.64742034299691
H          -9.78495072772533   -5.44482044938738    1.04641185250948
H          -8.67438342989487   -6.82039412559275    1.03378123128478
H          -8.17779559993168   -5.27043018692469    0.34101380969971
H          -6.18831912394626   -4.47433426977795    1.21405312989528
H          -4.81821347871747   -1.76930401828198   -1.59136196244578
H          -2.98848181341954   -2.29826227401561   -5.28919746759910
H          -4.81518998500591   -0.72126940531742   -3.45238469595946
H          -5.18728231873445   -2.39371872132434   -3.94865468102752
H          -6.09867009403183   -0.65341512982165   -5.41102331482216
H          -5.01258010239853   -1.56521317805652   -6.24007105051234
H          -1.25155714956830   -0.73709068832223   -4.28837653248490
H          -2.59198365459136    0.14232339943714   -3.52255580197735
H          -3.46470805624826    0.54217555306904   -5.68126222746926
H          -2.21450988773763   -0.23655808403729   -6.39043878259658
H          -0.85063181861451   -3.07748099747371   -5.48413020734118
H           0.12445821563682   -5.40508147874269   -5.18247022526139
H           1.76237913763836   -5.70693857554290   -3.19545833296899
H           0.30680899286997   -5.46999981204876   -1.23462215689841
H          -1.77184838811672   -5.21272008044523    0.34748043685155
H          -3.75333961906719   -4.42274697877537    1.57913995117727
H           2.33604601604292   -4.80238814408378   -5.77742051825410
H           1.35732188749601   -1.98753609998014   -5.09220664413075
H           3.65034955437150   -3.75859870452267   -3.61995619841227
H           3.78323939194673   -2.00909935603772   -3.90038106416592
H           6.09849543471247   -2.02196317518321   -3.04168544331192
H           6.08045343460413   -3.78926892247984   -2.95122979761569
H           5.03829481988082   -2.83963331957214   -1.88376119324557
H           7.24243473963652   -3.19799827526938   -5.32404860959432
H           6.81729291032473   -1.46531181853528   -5.35334260885302
H           9.29107758621432   -1.79330627822188   -5.26383765461193
H           8.81007690743398   -0.99567718588869   -6.76777644070393
H           9.22406186592732   -2.71407979631810   -6.77363487067529
H           7.57930645086780   -2.00790999480148   -9.15412948064134
H           7.14067061482292   -1.79588159462151  -10.86575611318528
H           5.83396688825872   -3.93144782861638  -10.77750361945620
H           6.31811936153588   -4.15373178364238   -9.09012354129855
H           7.53616086261082   -4.19050552456012  -10.36877157894630
H           3.21017193162097   -1.04247633511823   -9.61574922233466
H           0.53164044355666   -1.90606196687642   -7.20671858377633
H          -3.23976142465985   -0.14142567454025  -10.35172470951692
H           0.87479308302157    2.17438847777803  -11.97252639747217
