112
 SCF done       -209.715295411137          0.000954019893
C           2.04368662760908   -3.88100648756317    2.97556021298788
C           2.36607042739557   -2.69259286656030    3.60986416939280
C           1.47099786969928   -2.17593293434276    4.54773872712797
C           1.78341146903679   -0.96695286577903    5.21824950894033
N           2.03283451664503    0.01784333356242    5.74530628927837
C           0.25812320052473   -2.82962083101449    4.83693540389650
C          -0.63351676499199   -2.29480768513925    5.79715940971224
N          -1.38271321887388   -1.89410030981204    6.56494836059698
C          -0.06991064077230   -4.01801971605616    4.18423369131255
C           0.83275976924896   -4.53250795847034    3.27868365249281
C           0.75896713109850   -5.80520812896783    2.52936708367171
O          -0.22458156012208   -6.49419739847843    2.36369410784987
C           2.10404278475086   -5.97070942747739    1.91780546759312
C           2.78879615461497   -4.69154783573013    2.01147561388485
C           3.91474105299168   -4.29962677100944    1.34256179587146
C           4.50895090450589   -3.02568972652813    1.47924951934475
N           5.02564055394793   -2.00405072114321    1.54690307873784
C           4.59389054636456   -5.09212447698550    0.39154839979786
N           5.17955773300780   -5.69216046793789   -0.39174334699375
C           2.60797233535435   -7.14140756985331    1.43856469299531
C           2.06728894153941   -8.43723593594664    1.67608647344366
C           2.04707153320024   -9.46149528657727    0.76115116999179
C           1.31332929159441  -10.56215204176162    1.31736430075919
C           1.01698634055051  -11.74444883121889    0.63261503651299
N           0.72573109558517  -12.68335912965795    0.03813800983037
C           0.88481981998618  -10.21561504614587    2.58428534767116
C           1.32015522406402   -8.88829709445376    2.86182397856529
C           1.14221595114456   -8.14941546702897    4.02391815378234
C          -0.04645719855569   -8.12163388156232    4.92599405582017
C           0.22032321458443   -7.19589229731609    5.91831622118846
C           1.49231312746172   -6.61851980538758    5.67076946419208
C           2.03920793842527   -7.18449786778172    4.52208158048092
C           2.05659253610133   -5.54768816031014    6.37533776076495
N           2.49240109354827   -4.61686872060739    6.88701678362081
C          -1.29433359529885   -8.74473276811740    4.75008669921531
C          -1.71320920478555   -9.34949073217658    3.59445060748002
C          -2.81938077615128  -10.18309620484627    3.36954979154086
S          -2.86141290699052  -10.95161872652858    1.79993448402635
C          -4.29521320645238  -11.84185257921588    2.21220566978595
C          -4.74819747022039  -11.48469005806105    3.48808831084920
C          -3.90026250749836  -10.60567471077860    4.15959453739587
C          -4.14074893661716  -10.17054879007522    5.56971337521625
C          -5.24370734569744  -10.99484550318956    6.23386721418028
C          -6.42605599479189  -11.16676697344430    5.29105750818641
C          -6.01803192788763  -12.03327099847707    4.09630662361057
O          -7.06001428034743  -12.16110232777624    3.15671352512719
C          -4.79930807375721  -12.85684221079599    1.37184063813573
C          -4.07559661970986  -13.36644824179325    0.33722538060113
C          -4.47737655192093  -14.43696247920061   -0.49784744984227
C          -5.74710888439147  -14.84108750069791   -0.81747674386220
C          -5.65789051152338  -15.84097098717583   -1.84920638907229
C          -6.76423691985052  -16.49457410546120   -2.41186922873744
N          -7.67758488746884  -17.01887965632108   -2.86710836547992
C          -4.33787426060125  -16.04130211635690   -2.18713442282336
C          -3.53606904821693  -15.23285988951530   -1.32490572681744
C          -2.17983177161226  -15.31864465077987   -1.12089027585237
C          -1.15661996724636  -15.88566202138530   -2.02759677678844
C           0.02349056826997  -15.93146627455029   -1.32775736279313
C          -0.20223615095197  -15.41846777685160   -0.00195681406338
C          -1.50935849250356  -15.01319989622557    0.10706951596345
C           0.76163952539743  -15.35318398231751    1.01523022304236
N           1.53523537464450  -15.30126065472843    1.86097213967205
C          -1.35906583869275  -16.17025059528539   -3.40060028591357
C          -0.48380188770598  -16.85328044806621   -4.19071852487745
C          -0.74807557393639  -17.10169194127191   -5.55128750057007
C          -0.04007499086261  -17.89410997833067   -6.41156437860627
C          -0.21855691683673  -17.72722709307754   -7.87527977182600
O          -1.09253265568633  -17.11294912584608   -8.43984188190148
C           0.93590415921178  -18.42793413320870   -8.48714186951136
C           1.30223174215577  -18.48332315040302   -9.81475137569296
C           2.46564640503840  -19.17943743026901  -10.14812924180525
C           3.23426532430813  -19.79527668534769   -9.14195836942957
C           2.84760363354290  -19.74268362762162   -7.80101935853877
C           1.68842958315795  -19.05955865344032   -7.47690568213661
C           1.01267018951481  -18.85859506632106   -6.19204707005585
C           1.20941844506600  -19.62624393498866   -5.07388142663937
C           0.35328729404913  -19.62517518171569   -3.95142689752771
N          -0.33852695519592  -19.70120426513425   -3.03904513195857
C           2.22892402786397  -20.59513783151850   -4.95617482726278
N           3.05221592163435  -21.37971475909750   -4.80587797727582
C           4.42528080608792  -20.47669892175730   -9.49617304430234
N           5.38882126954329  -21.03011679870216   -9.77135329027297
C           2.87694608535809  -19.26085953713252  -11.50044155257666
N           3.19568980767007  -19.31131038515833  -12.59907154004077
H           3.28744625723057   -2.16669690746964    3.41599414937039
H          -0.99559176914733   -4.53186854187523    4.39591003231334
H           3.51444451090538   -7.11996057771221    0.84552370566449
H           2.45061113903746   -9.43480232354250   -0.23397177683822
H           0.41649147161056  -10.87450210591165    3.29143366540259
H          -0.43766480699483   -6.91029339545371    6.71752412661954
H           3.03056778484367   -6.99920722522256    4.15370064867781
H          -1.96083459489336   -8.66908752745060    5.59758233522914
H          -1.10182110714462   -9.18891753428859    2.71650837032160
H          -4.41789303028716   -9.11105120764975    5.56960725729741
H          -3.21915562632757  -10.27452763142705    6.14580576888384
H          -5.56266632902780  -10.49953043801692    7.15127910926834
H          -4.85403037205562  -11.97900170074543    6.50175065074448
H          -6.75571038856872  -10.18846059562697    4.92873446341143
H          -7.26506878406270  -11.63943608557540    5.80226817113482
H          -5.83004216033674  -13.06080288942233    4.43718861484243
H          -7.35026439217914  -11.28219682496809    2.88543978652520
H          -5.75439512723360  -13.28317422609333    1.64217720158896
H          -3.09737049691660  -12.94326778149423    0.14213764489157
H          -6.66948266109102  -14.45502558089291   -0.42693918995251
H          -3.97867650640056  -16.78713951457657   -2.86947257213396
H           0.98239984756612  -16.25192442370179   -1.68779703467278
H          -1.97689623372313  -14.65465504085623    1.00357057631395
H          -2.28487823591194  -15.82930034973872   -3.84426639581171
H           0.43897024972426  -17.21761622853070   -3.76617923203573
H          -1.56563622255628  -16.55188967418431   -6.00743151973894
H           0.70656566702843  -18.00065770858792  -10.57461683893979
H           3.46254706447813  -20.22244318745246   -7.05591158282869
