118
 SCF done       -209.752399527880          0.000897993611
C          -3.52339372716726    0.39897266406291   -5.00786946982417
C          -3.53641023482791    1.69534066288956   -5.49570470883746
C          -2.32918242927981    2.39410976469414   -5.56170527888527
C          -2.31945311414463    3.71923266122183   -6.06287549009760
N          -2.31763442065057    4.79003130794144   -6.46821699072366
C          -1.12016592046065    1.80727876381213   -5.14198645518691
C           0.08705243997143    2.54228169399136   -5.21427062756750
N           1.07551036337474    3.11847737257142   -5.26382064345212
C          -1.11150077979032    0.49873451941343   -4.65666613583654
C          -2.30915485902436   -0.18093992905566   -4.60169535586994
C          -2.54672639321799   -1.56963285418071   -4.14251308319228
O          -1.68323538506473   -2.31559260710851   -3.72709014677245
C          -3.99057267850642   -1.80694773483433   -4.32159336198494
C          -4.59514451330273   -0.57694302055118   -4.80357685148690
C          -5.92753040308355   -0.31056394225726   -4.98681608367293
C          -6.43051368234469    0.92542957479113   -5.44851000407744
N          -6.90716024124583    1.90058520037978   -5.82125074066754
C          -7.00551009851844   -1.18374410601530   -4.72212473495368
N          -7.95050278166107   -1.80555791963692   -4.52378953116911
C          -4.69954446737106   -2.97115964505970   -4.14146233489663
C          -4.32926575817469   -4.22936638890910   -3.63983393155773
S          -5.60691958836708   -5.45010340644600   -3.58905128995209
C          -3.14800223334031   -4.72134502693304   -3.11832967735193
C          -3.23173755570412   -6.04331502398937   -2.65845485703981
C          -2.21001581513252   -6.82693906536602   -2.04988956642953
C          -0.84523615765643   -6.20795352861498   -1.91775716479263
C          -0.74874369671538   -5.35974090251647   -0.64729233590702
C          -2.51011460453880   -8.08219892459101   -1.57238972533866
C          -1.48770449036302   -8.95803164453818   -0.89848659776836
C          -0.85891574011820   -9.92854782418532   -1.90102183879573
C          -4.53216037428115   -6.57531545994070   -2.84292886723732
C          -4.81332955992840   -7.85428621982730   -2.40350023534195
S          -6.32473736031663   -8.70308435761788   -2.51918013918500
C          -3.82098576540484   -8.60871789688779   -1.74616283492435
C          -4.32979412289658   -9.85807862920033   -1.32770833292552
C          -5.64723821293657  -10.06233975220721   -1.65723596212790
C          -6.47455983792209  -11.17914631532080   -1.35142061037926
N          -6.10066594731072  -12.14780490301843   -0.44182928144448
C          -7.12311813096345  -13.03608675806435   -0.32203348581832
C          -7.54875521794624  -14.17291336122368    0.35891027298131
C          -8.82825093027885  -14.45798888958668   -0.12860897793540
N          -9.16828256285958  -13.52812288318630   -1.09134577172331
C          -8.15237888965403  -12.63492211562492   -1.20904541365448
C          -7.74713546529950  -11.46475847236059   -1.84768682230604
C          -9.73486544451151  -15.48645394773694    0.24544116198261
C          -9.59229450548042  -16.26631138531211    1.34190449372244
C         -10.51011274078511  -17.27313916733302    1.75581133438662
S         -10.40669570050042  -17.86397568125406    3.40061420102717
C         -11.52986178653169  -17.87665950658620    1.06263291720347
C         -12.26347701939141  -18.81899104214277    1.81741725675793
C         -13.37526077794259  -19.60914641584640    1.41067778716283
C         -13.84175841084468  -19.44239806689556   -0.01063491644857
C         -14.73808528148594  -18.21134589866652   -0.16035309086134
C         -13.98305345680828  -20.44978758130954    2.31848436627459
C         -15.20182742773839  -21.27583053700531    2.01129211805325
C         -16.46752846203444  -20.59477977776972    2.53899224126478
C         -11.76851136278589  -18.90276837027234    3.13528113347820
C         -12.38564092446515  -19.73236916843156    4.04886109462499
S         -11.98996279426428  -19.92996435280778    5.72235629498794
C         -13.48687134261640  -20.52009535029312    3.65101473823052
C         -13.95855815956669  -21.30177058648910    4.72305389813359
C         -13.30497437604509  -21.08046393101466    5.91383172610794
C         -13.57532688652490  -21.71454302144629    7.14788663616830
C         -13.26625529240571  -21.27331898709479    8.40114859544301
C         -13.17797905432806  -22.22256025478677    9.53581060108218
O         -13.55233854296675  -23.37132157973668    9.56637980323167
C         -12.47500641559717  -21.47219564685399   10.60725570931827
C         -12.03859719579064  -21.92669923517883   11.83311288652843
C         -11.36732780325250  -21.03016287983872   12.66748947037900
C         -11.14643590564938  -19.70332377314602   12.25079826034947
C         -11.60368078365088  -19.24909362915934   11.01210069916175
C         -12.27371245948116  -20.14031954926201   10.19284975025612
C         -12.89719942692408  -19.96100744812856    8.88241888223182
C         -13.31847116462901  -18.76343021957803    8.36585324927863
C         -14.20732475227693  -18.67061155864331    7.27344849571425
N         -14.98297664433598  -18.56835751360509    6.43351204488266
C         -13.00642568013737  -17.51045780014109    8.92993072689013
N         -12.76435563084163  -16.46994038063479    9.34907950261847
C         -10.44565191003052  -18.81395045132386   13.10239248676950
N          -9.87660428052214  -18.08903096357735   13.78179317282463
C         -10.90251804305661  -21.45764497208481   13.93425551249303
N         -10.53591972545204  -21.82106393504302   14.95652333648654
H          -4.43972092920747    2.18056886525774   -5.82834588082600
H          -0.19404963996590    0.03057306212350   -4.33357457350169
H          -5.74348518606990   -2.92819099890473   -4.42862355244345
H          -2.26267088307745   -4.11564485205709   -3.07078602568875
H          -0.65106586938220   -5.57497959369795   -2.78406034778005
H          -0.07618718659596   -6.97917370590631   -1.90105833933796
H          -1.48262129403557   -4.55801408412576   -0.66850268327469
H           0.24162510288461   -4.91901007712083   -0.56541553648853
H          -0.93359794639399   -5.96699455781891    0.23631920979943
H          -1.96711270190732   -9.52287709516411   -0.09742691048972
H          -0.70726527408275   -8.35309430003041   -0.44027665067839
H          -1.62153747746099  -10.55503006929472   -2.35821574839307
H          -0.13316257883984  -10.56879602957726   -1.40491888246625
H          -0.35321587312282   -9.38124911600241   -2.69317684962238
H          -3.74406267182426  -10.59766536897017   -0.81282959502994
H          -5.24675193014096  -12.14224609321203    0.08703464563847
H          -7.01800815165910  -14.73708160773981    1.09807601013495
H         -10.05189082811153  -13.49918319970503   -1.57025328369634
H          -8.27308253581671  -10.87905597911909   -2.57465855177058
H         -10.61073458754545  -15.60166671580752   -0.37977079941119
H          -8.75321878818296  -16.09762536023669    2.00112712516481
H         -11.72673669552639  -17.64908472696022    0.03159894767779
H         -14.38788112586933  -20.32240588403360   -0.34699391296933
H         -12.97072491756402  -19.33725461937913   -0.66025459658000
H         -15.63997512199736  -18.32277262429613    0.43542531439390
H         -15.02655954877052  -18.07962646684456   -1.20073487944820
H         -14.22078308861535  -17.31564875509430    0.17542227019440
H         -15.09713714381235  -22.25710571618546    2.47791979960452
H         -15.30737183177520  -21.43800923682095    0.93989046049420
H         -16.38554447247716  -20.39712173176469    3.60486271578611
H         -17.33483450254672  -21.22734613117037    2.36504699586565
H         -16.62697273167727  -19.64567365900381    2.03401493385896
H         -14.78676844430005  -21.98428736153093    4.66282300730596
H         -14.01721148085914  -22.70454943921516    7.09204544527368
H         -12.21041055805147  -22.94727153934052   12.13986780104652
H         -11.41704218955016  -18.22782534172016   10.71889581567645
