106
 SCF done       -197.862187522770          0.000678746631
C          -6.06384881752365   -4.24848029862416   -7.60860914746745
C          -6.52653601462612   -3.36997077923958   -8.57305675865371
C          -6.52172880193276   -2.00256274665228   -8.28659384281406
C          -6.99536603667768   -1.08748507738697   -9.25887001457351
N          -7.38007678245329   -0.35274101407485  -10.04818052654617
C          -6.05750098353809   -1.51615927543502   -7.05006306896856
C          -6.06511299955010   -0.12567909413812   -6.78729657362461
N          -6.06312969395782    0.99525374482361   -6.55217859404628
C          -5.59091394058972   -2.40528674034521   -6.07996974039184
C          -5.60333272309387   -3.75114615151335   -6.37443982987236
C          -5.17578741078300   -4.88371962794444   -5.52493339833099
O          -4.72661052367155   -4.79913128160992   -4.39335269832261
C          -5.41008369161853   -6.08986466968912   -6.31139564877600
C          -5.94534985375595   -5.70984981507678   -7.59954116668321
C          -6.28159921961058   -6.53030772750804   -8.64500276209058
C          -6.79742937826887   -6.07053992183302   -9.87552926292962
N          -7.22041357007595   -5.76023712444113  -10.89647880172671
C          -6.16285865672724   -7.93722106760473   -8.66640826405056
N          -6.10044647632780   -9.07727926847808   -8.78511060097341
C          -5.17783441144549   -7.37589434600635   -5.87116620691508
C          -4.67747510577427   -7.82007591930845   -4.65217614549331
S          -4.11155333480183   -6.89415424082571   -3.28927423989640
C          -3.70775453591869   -8.29981993600721   -2.37387827465950
C          -4.04413248067859   -9.47865066705069   -3.06821468718272
C          -4.56506826635978   -9.20378057763658   -4.36664546145486
N          -4.93088215550547  -10.17290733650602   -5.21263534303812
C          -4.80442309864401  -11.39627179851077   -4.77041200667649
N          -4.43942187031102  -11.76704616342461   -3.53832716444605
C          -4.08343529998918  -10.83356279278490   -2.69236627145827
C          -3.10680264873676   -8.18736004969390   -1.07894154219398
C          -2.31273045993571   -9.19741718461437   -0.56884569536582
C          -1.77410898754517   -9.08306978867835    0.72215604539629
C          -1.00120447408357   -9.97355886303823    1.46596605198073
C          -0.53652712962929  -11.31068163435683    1.01965677485497
C           0.98473593134044  -11.35241143088875    0.71677681647232
N           1.78427554293556  -10.97861573025482    1.86944231354053
C          -0.88445149601380  -12.44674712311568    2.00196296825517
N          -0.85711083417699  -13.70721640632572    1.28392991903847
C          -0.77438684094403   -9.34323393880575    2.74532642355035
C          -0.11035479898025   -9.77018482428148    3.83528000323517
C           0.00306710845950   -8.92366315169195    5.06007523552644
C          -0.67933016909509   -7.59846132941912    4.97303535807435
C          -1.35580562330752   -7.19886290247138    3.88003038825589
C          -1.43217200428286   -8.03101896368310    2.73652839008678
C          -2.03817705549682   -7.88331701390408    1.50326517163101
C          -2.80335882116485   -6.84008076995988    0.93243698844484
C          -3.31437780536693   -6.98991923017339   -0.31521575458147
C           1.46290130774434   -8.86293840225076    5.41423699825056
C           2.17896483267689   -7.76279798073156    5.67959971244821
C           3.58242673060086   -7.79527774836108    5.91401981011076
S           4.52997582079100   -9.21801821288893    5.72200813189663
C           6.03828582116313   -8.40323546229181    6.05323483610185
C           5.78364632867403   -7.05800078775681    6.36580845372395
C           4.40227185866233   -6.70914515509756    6.26129015308833
N           3.95965717313143   -5.46088074910220    6.48731418836735
C           4.87173892128860   -4.58720852908425    6.80991751509153
N           6.19077128658378   -4.80053620817714    6.93640880178132
C           6.64915867771647   -6.00168538011593    6.71467200083774
C           7.27457718182198   -9.06242914244148    6.05275029287576
C           7.58651295253042  -10.27648636068479    5.49400968901060
C           8.73096788703571  -11.06241339954339    6.01048614288447
O           9.61017049657633  -10.68605222685061    6.74900842797738
C           8.52432532782362  -12.43318329974494    5.47478271157071
C           9.24110679429756  -13.58015626227990    5.73714070703954
C           8.82941588135216  -14.76841273187464    5.12775203740529
C           7.71270614607895  -14.77655772873770    4.27047683240637
C           7.00172688852526  -13.60548206034529    3.99949052067839
C           7.41293861774904  -12.43341487064239    4.60801513679434
C           6.90947635010650  -11.06605900737876    4.49724314298186
C           6.15281872058531  -10.58748813346449    3.45430843452627
C           6.00025691953816   -9.21051401413645    3.19067022582475
N           5.89423891564378   -8.10006195479901    2.91909394937773
C           5.46614211527365  -11.38597429698595    2.52563772088193
N           4.81520330714091  -11.96817870191369    1.77823645804110
C           7.29786142540568  -15.99312126354077    3.67430767870801
N           6.94727520409667  -16.96907528275888    3.18959073851860
C           9.53387040370152  -15.97066148100135    5.37693458162448
N          10.11365676877936  -16.93447896318822    5.59170494084103
H          -6.89049985520299   -3.70211512013466   -9.53199437618303
H          -5.23183400531233   -2.04934532846494   -5.12626677634644
H          -5.41858437170661   -8.19761412978902   -6.53629705174608
H          -5.05744926064023  -12.19372679443841   -5.45528641967037
H          -3.86339391522487  -11.15862099591510   -1.68351598896448
H          -2.06958763202762  -10.05553070388723   -1.17574493390564
H          -1.03553226581031  -11.54509061007681    0.07360057058036
H           1.17678027782751  -10.71823199877988   -0.16028082394220
H           1.21027898324327  -12.38792084102727    0.45696061759096
H           1.92035285014598   -9.97382282337556    1.90169013185769
H           2.69805909405211  -11.41740013938415    1.81886196135000
H          -1.85604744792473  -12.23047007409720    2.47841190744905
H          -0.11959231662116  -12.49611008915896    2.77722245246150
H          -1.63906019878110  -13.77643791064749    0.64142444741068
H          -0.90637882515151  -14.49129580315479    1.92304851260305
H           0.40481527349907  -10.71790349374462    3.84285692163734
H          -0.47973468883731   -9.49163262590227    5.87674342642943
H          -0.62605228464783   -6.97585098697969    5.85258651704172
H          -1.84816452302448   -6.23779806229659    3.86013234461450
H          -2.97929079765021   -5.93663408321103    1.49652701004320
H          -3.91102643317777   -6.20860706110153   -0.76158165311429
H           1.96095761129447   -9.82546557541201    5.41250754036622
H           1.73901591554884   -6.77691484492501    5.71254812130389
H           4.53792496780846   -3.57610522735014    6.99936928224399
H           7.71689752038414   -6.14631483640974    6.81672589964402
H           8.06738498508631   -8.59802238990135    6.63051216230235
H          10.09665196564882  -13.56244760367217    6.39497530262488
H           6.14945901345972  -13.64178199831210    3.33864256932318
