124
 SCF done       -251.202947704162          0.000727122881
C          -9.54895295235298   -2.54204479266334    0.05556175452375
C         -10.48753138220651   -1.62269014779546   -0.38800092377353
C         -11.76589938733533   -1.65379585595264    0.16962761979219
C         -12.73982457160488   -0.72233501661810   -0.27107082068070
N         -13.52036321081614    0.03384160832699   -0.62992813998297
C         -12.10911512786378   -2.59296598850675    1.16273849523765
C         -13.41597858282083   -2.59623538406470    1.70875457012800
N         -14.46697020336240   -2.60911980625885    2.16243102839324
C         -11.16345822599829   -3.51613590442812    1.60804453824405
C          -9.90246100165542   -3.47806711470909    1.04853792296477
C          -8.75051449672259   -4.34880800563838    1.34633306038088
O          -8.67814849341345   -5.20786613717356    2.19310948862504
C          -7.67294572390784   -3.91150792894701    0.40857437779625
C          -8.16241211034415   -2.76320123693668   -0.34722119397424
C          -7.47169981914667   -2.04765326674915   -1.28005425996295
C          -7.99936832233972   -0.93957350465658   -1.98314950132769
N          -8.37250453234423   -0.03362672995204   -2.57840481576405
C          -6.14003956465117   -2.30813405129574   -1.67997507924368
N          -5.07173595842165   -2.46512430217038   -2.06582736187402
C          -6.48145232526890   -4.52692015734606    0.31386019184408
C          -6.13190286377596   -5.73364355505545    1.04972410710523
C          -5.00840744770536   -5.75818987026794    1.86940933463147
C          -4.07206793155055   -4.65920419715418    2.18935272796980
O          -4.09695301279428   -3.51377698206502    1.81875411322597
N          -3.11609196213704   -5.21255025728636    3.04710741361845
C          -3.37444053926269   -6.55742965983993    3.33289327418946
O          -2.72110815120127   -7.27753693560275    4.03865807052042
C          -4.61138708271401   -6.89297923517061    2.57891602295095
C          -5.32555588067722   -8.07351217696043    2.51892709056307
C          -6.44939160604044   -8.06589447129305    1.69657218876810
C          -6.84286207993667   -6.94344522140559    0.96943166590753
C          -8.03537987142147   -7.15797445131762    0.12521077200825
O          -8.55053397487036   -6.39018299053636   -0.63616101330777
S          -8.64592989156835   -8.81947303508136    0.38573154752862
C          -7.32366700299915   -9.24521419024877    1.52886132425546
O          -7.21278525988057  -10.31372889637076    2.04403622466994
C          -2.05554365146839   -4.43673070293270    3.51954193209562
C          -1.03222275744618   -4.90525255461045    4.23993295671172
C           0.08729625270281   -4.13025711774756    4.72910412403249
C           1.16238143189138   -4.82060667070339    5.29013343733577
C           2.27572445373443   -4.16952967498127    5.79695734863822
C           2.35361588615991   -2.76866482686395    5.71602615097028
C           1.27483989439046   -2.07350919457648    5.15606450335947
C           0.16641228027305   -2.73321048357676    4.67789779358966
N           3.48289516178224   -2.07426813944325    6.14115294356153
C           3.32703752953527   -0.82296912944683    6.75800980788049
C           2.29123800006441   -0.61725392808173    7.66775226726917
C           2.13857000404156    0.61386557269808    8.27495679593840
C           3.01300865722243    1.64970142745451    7.98805857529586
C           4.04378072419885    1.44815326797279    7.08420014563028
C           4.20244104973077    0.22211533320126    6.46789286153201
C           4.76068247023379   -2.60402168555123    5.95309814541569
C           5.04204372940721   -3.40180328031999    4.84236447738330
C           6.29427871266696   -3.96458675029165    4.69101475758405
C           7.28571682629687   -3.73719016339149    5.63184011184020
C           7.02029510547787   -2.91880881960833    6.71843650093021
C           5.77266696940389   -2.35034070065610    6.87976442997759
C           3.29759066823472   -5.01640534898989    6.41502915051983
C           3.70119118828597   -4.92790653075106    7.68524077167938
C           4.66153092518675   -5.84624295441756    8.25876210259630
C           4.70095798773272   -7.21406937437385    7.94243190776934
C           3.73664945948724   -8.05046618074229    7.19653399626856
O           2.69705087738892   -7.77555115025323    6.65915750876702
N           4.24911187089600   -9.36502457488400    7.24124258598722
C           5.44970882397117   -9.44275362338177    7.96197325960454
O           6.11607314704769  -10.42861965899719    8.11856742133001
C           5.69660209199915   -8.06353853398816    8.44190191672539
C           6.70730778136548   -7.61580081501678    9.27114177876387
C           6.64422080586069   -6.27763138076782    9.63920422445524
C           5.64283456374797   -5.42097352811412    9.17798042342880
C           5.71901404015376   -4.06354692599057    9.74469439970829
O           4.96235930751919   -3.14824336967108    9.60063471523670
S           7.17983888414770   -3.93736237494783   10.78618152648892
C           7.63194301009082   -5.65599051307558   10.54386751766667
O           8.58706719365524   -6.16810555917080   11.04174414111570
C           3.54489082902228  -10.40130670971933    6.67116058989534
C           3.86967667487624  -11.70468495211034    6.74465878547187
C           3.04994466855247  -12.70062732230795    6.14997261822860
C           3.10686794216890  -14.03924788086533    6.37428869717892
C           2.45958034411019  -14.98476463903956    5.42682961200948
O           1.66700969972675  -14.71864809184954    4.55650451207511
C           3.04667019859580  -16.30745541790189    5.74618444473814
C           2.86460105178843  -17.50612747361097    5.08958143723827
C           3.55520078993489  -18.62494754354006    5.55788292695962
C           4.41544036999885  -18.51190927299360    6.66732138593352
C           4.58596482767856  -17.29540109847187    7.33071719162696
C           3.89159716858384  -16.19016056226489    6.86860283447610
C           3.82826998575295  -14.81397707408881    7.36478009719561
C           4.17535559243988  -14.40995336455612    8.62481721020063
C           3.82193341604231  -13.16116833116821    9.18382205498331
N           3.49866540815499  -12.19156673648092    9.70480615819118
C           4.82200884913414  -15.24405687608224    9.56372263786797
N           5.35761329790242  -15.88262191466438   10.35144593851533
C           5.12295868939533  -19.65504189133069    7.11645077384357
N           5.69855817450630  -20.57417654132539    7.48254758801603
C           3.39493872239878  -19.87462671229224    4.91158115092205
N           3.25157316594445  -20.87501914814282    4.37340737182744
H         -10.26401071576532   -0.89041394705616   -1.14746064025906
H         -11.41000411595797   -4.24398785416390    2.36618515000089
H          -5.69431923753955   -4.12472991763825   -0.31034235771290
H          -5.04052825079106   -8.95442604920809    3.07171017410609
H          -2.15039174196696   -3.40543994809775    3.20908361029922
H          -0.99990533284462   -5.95634320525265    4.48494274313399
H           1.12543563730888   -5.89751668582127    5.36609141133282
H           1.33113858836115   -0.99713509475336    5.08782356353365
H          -0.64158367073706   -2.15967539803010    4.25272227392782
H           1.61792365452781   -1.42923446233970    7.89959213552400
H           1.33774185101073    0.76257578286489    8.98345059073419
H           2.89267253608318    2.60903323642749    8.46715008554533
H           4.72503112701194    2.25281997055002    6.85197361601416
H           4.99889996570221    0.06684656887364    5.75502175012430
H           4.27934531094613   -3.56556914900726    4.09527730651887
H           6.50054208204966   -4.57837736797498    3.82670828432915
H           8.26105646925150   -4.18344904989795    5.51271603616014
H           7.79074332431810   -2.72460622319780    7.45025020785434
H           5.56450398633380   -1.72777657700069    7.73598212200601
H           3.67954482098994   -5.80509827001241    5.78135380859708
H           3.36793428310490   -4.11613552716083    8.31512528508916
H           7.48459439343218   -8.26656811790178    9.63811363822345
H           2.63613941331813  -10.06588314023718    6.18443555196599
H           4.76778628313608  -12.00685826508011    7.26030077318831
H           2.34132030717852  -12.38092206555705    5.39337391379190
H           2.20642238189973  -17.57593548652894    4.23683398056556
H           5.25659598185115  -17.24336373257955    8.17397373827536
