105
 SCF done       -239.936926256652          0.000916754011
C          -0.29105258528605   -8.49803191656481    1.79443520936963
C           0.32551500173586   -8.05478603519846    2.95126188651814
C          -0.33658306147443   -8.25121374883226    4.16260559024439
C           0.20525270589278   -7.68080023913063    5.33740069253331
N           0.61493071690906   -7.14490936670978    6.26382758725888
C          -1.57259232764155   -8.92700473832137    4.22082751918423
C          -2.19682785600968   -9.12232438713947    5.47712250123670
N          -2.70022637927145   -9.28030794443037    6.49307830941699
C          -2.18955143036031   -9.36820347487205    3.04952511736854
C          -1.55297866715044   -9.12425496941933    1.84946954222827
C          -2.07158516973112   -9.33149369272520    0.47385085221721
O          -3.07197781114046   -9.89611964723670    0.12958933461237
C          -1.10945051777544   -8.56327106744623   -0.38347275793603
C           0.10156407535938   -8.34496343560896    0.39933373714394
C           1.36122646208922   -8.14216657431663   -0.07775367782263
C           2.48360381290178   -7.94904353380963    0.75923614399952
N           3.40290768909410   -7.75674082561488    1.41596640474305
C           1.66848566803429   -8.11574362391000   -1.45596135190279
N           1.94509514323136   -8.08861682934167   -2.56829041370665
C          -1.51323275165338   -7.96127652630334   -1.51518715637252
C          -0.80379597003887   -6.87789775125255   -2.17424427011496
C          -0.26791636232108   -5.79087751042626   -1.47500348223834
C          -0.33274296409322   -5.45067619953644   -0.03365179473900
O          -0.96577776067817   -5.96964213102452    0.85403171833660
N           0.51725617614594   -4.35958276671747    0.14654472830123
C           1.02240720686779   -3.87485188736563   -1.07278866589169
O           1.73789921057058   -2.92709253168843   -1.21506881818607
C           0.49123630084640   -4.80351250990460   -2.10884615008540
C           0.71532269537096   -4.80261901404668   -3.47274494235011
C           0.14086304675569   -5.85059868568348   -4.18448570068744
C          -0.58562276542676   -6.85932112311676   -3.56078581448428
C          -1.03592501868828   -7.93949569445572   -4.46503431745059
O          -1.63353900428346   -8.92846046228659   -4.16421108991382
S          -0.53550298624809   -7.54281297025999   -6.13667564320687
C           0.28139990968979   -6.01631215600242   -5.65111567164875
O           0.82929546430702   -5.28502554677029   -6.41326489775540
C           0.81142379990984   -3.91614296696951    1.42933470375765
C           1.72144660410023   -2.98093540421556    1.73863288240743
C           2.06193822809888   -2.62564600818986    3.08693243327334
C           3.06899064699217   -1.65077494454404    3.29802506390444
C           3.52592797366386   -1.29124713284783    4.61346245601595
N           4.56107472014914   -0.44098526853758    4.76712352726340
C           5.06906462949144    0.12619089811537    3.70858906523559
C           4.55107768444474   -0.15992240378722    2.39575113388540
N           3.60937794866263   -1.04767527558346    2.22525182783046
C           5.08913610469353    0.51148821813763    1.26766048289312
N           5.54938392680583    1.07453577256147    0.38360338804418
C           6.15360274517901    1.02806823967903    3.86493522588088
N           7.02281441089399    1.76580462436686    3.96692524287904
C           2.93719203252046   -1.84040647047407    5.75882544942719
C           1.90740653743211   -2.76165800416784    5.56422204293464
C           1.48634637736498   -3.17887297028724    4.24604136678952
N           0.51118469021030   -4.09881354732147    4.32715423182940
S           0.16672861105526   -4.37050389662684    5.86501575333005
N           1.19884887577151   -3.36153259535983    6.53151714604280
C           3.39846457882942   -1.51705961661895    7.10111810269688
C           3.73409839545174   -2.53053378688357    7.99783194187673
C           3.79103903631850   -3.99722778985321    7.78667238523698
O           3.68623910133583   -4.64064965339336    6.77879277488577
N           4.05411883683195   -4.54269506404729    9.05137486939579
C           4.34078181970999   -3.55778522407710   10.00915667521953
O           4.68497329075362   -3.75594421432004   11.14051844015427
C           4.13843106839850   -2.26421731735054    9.30635413963887
C           4.30077623974267   -0.97210227608822    9.77362033394372
C           3.99932061391597    0.04528441052750    8.87475475136534
C           3.52945566141471   -0.20830769125565    7.58645727372209
C           3.12052989506360    1.00415489190632    6.84555655766746
O           2.53284306647466    1.07409408177921    5.80703060730205
S           3.57676548103816    2.45100630529448    7.80179052942924
C           4.12772959556854    1.48168306634054    9.21106500430875
O           4.52367922463228    1.95563685280925   10.22925045446931
C           4.24207577708681   -5.91065770235475    9.22073480219601
C           4.04736505668128   -6.55443818772863   10.37904789422423
C           3.41895004476762   -5.97923520439417   11.53079270269128
C           3.58950382784991   -6.32925897420400   12.82745999965298
C           2.58784051507276   -5.92065303356081   13.84929251566647
O           1.69137017029486   -5.12495705829070   13.71336078259988
C           2.89246044755199   -6.75260488083333   15.03681658143132
C           2.19361523647749   -6.84225479201079   16.22227000719034
C           2.65182460909425   -7.73583632991062   17.19136393796725
C           3.79556815773726   -8.52033007951415   16.94578527313148
C           4.50208168669846   -8.41473496233336   15.74658028844092
C           4.04820004740391   -7.52152024170275   14.79042176480742
C           4.57902273227291   -7.16997488616440   13.47240697990840
C           5.84709029371844   -7.42248862032957   13.03039683892590
C           6.41852608708397   -6.84485170382163   11.87436754201978
N           6.95838738606188   -6.37811827060792   10.97679326695569
C           6.77845492864331   -8.21876615949816   13.73401309814500
N           7.55659403122523   -8.87482659597200   14.26226784430705
C           4.23310040635221   -9.43851236848526   17.93305500459054
N           4.59026827004295  -10.18552257204473   18.72338187879250
C           1.96052820463580   -7.86090827680990   18.42088316379023
N           1.38681581006347   -7.94955957897870   19.40770240774098
H           1.26700030654230   -7.52825005621031    2.93657499988507
H          -3.14999518243471   -9.86005836998626    3.07973046816102
H          -2.45523511409228   -8.27812723744915   -1.94712306132809
H           1.30853598258184   -4.04534949767728   -3.96027851753177
H           0.25043045054121   -4.44063021868738    2.19245679911070
H           2.26942742502096   -2.45422673654695    0.97152745306594
H           4.63757687336952   -0.75606964748683   10.77514311162018
H           4.60628258798004   -6.41112078993128    8.33452107611747
H           4.35193324394793   -7.58985149435821   10.43997379504917
H           2.62816762630340   -5.25827957581745   11.34980630308389
H           1.31504748693130   -6.23901771836719   16.39387337323130
H           5.37121223699981   -9.03413449961055   15.59024110142281
