103
 SCF done       -222.338233109485          0.000752402440
C          -8.36111612789665   -2.30121541326455    1.75683092804915
C          -9.58492098189711   -1.81840625075322    2.19319993698572
C         -10.43751986888796   -1.22744761167410    1.26049019692970
C         -11.69454392615804   -0.72752115527487    1.68642999046910
N         -12.70419599208810   -0.32253741674931    2.04151127479692
C         -10.07278470740979   -1.11890756626627   -0.09640260717327
C         -10.95886461545546   -0.50946782201583   -1.01879165849740
N         -11.65926723491744   -0.01664654457916   -1.77797444386162
C          -8.84166898534861   -1.60870883426320   -0.53352625064626
C          -8.00622938687223   -2.19310813444550    0.39628393557888
C          -6.67366478488407   -2.78926090274426    0.18006950251629
O          -6.02131397824277   -2.79260888916967   -0.83574524285960
C          -6.28246585697604   -3.36124111630969    1.50432542622110
C          -7.28986558435579   -2.97144776959083    2.48514721083062
C          -7.22721907082724   -3.17158886948468    3.83265079887734
C          -8.18457548007948   -2.71426175158104    4.76366600467533
N          -8.89779016809751   -2.35097406624818    5.58602656143907
C          -6.16685540126883   -3.83248964664554    4.49563605700802
N          -5.34436349087312   -4.35577122294448    5.09866818418104
C          -5.19439916990870   -4.12525961245570    1.69501799249953
C          -4.25356812900717   -4.50002475521745    0.64910439188301
C          -2.90694403783511   -4.17780265036484    0.78713048623595
C          -2.25921204511612   -3.39208938311109    1.86581137365951
O          -2.79211774042796   -2.84449425701745    2.79772044598537
N          -0.90156172906094   -3.39371184162666    1.55820935977958
C          -0.62743954918475   -4.05895848282533    0.34920418308275
O           0.46385626683588   -4.18318865239514   -0.13106823364395
C          -1.93932004221064   -4.54608423631278   -0.14771652129301
C          -2.26670308325288   -5.24611347571606   -1.29325363572480
C          -3.61230170318619   -5.57236849574958   -1.44490694304816
C          -4.58095175730834   -5.22902520556702   -0.50384920599123
C          -5.94098770399488   -5.71195199750707   -0.82720836817725
O          -6.93368516775552   -5.60462805411028   -0.16699788076001
S          -5.90637881238232   -6.53596296347578   -2.41214714298904
C          -4.13164428399001   -6.31172423950712   -2.61620489811717
O          -3.51873653003143   -6.70797867809176   -3.55670663140924
C           0.14002428683785   -2.83699575650931    2.29813592367658
C           0.00988648284963   -2.16332294557735    3.44592816107247
C           1.13935093266281   -1.63411694019609    4.17096993988365
C           2.47025379250377   -2.05873722730913    3.99046145252097
C           3.36558938407402   -1.41092491464617    4.80162488710923
S           5.07384083599499   -1.71350102709514    4.83670131896490
C           5.61823289726624   -0.51920215629080    6.08794757707933
S           2.59037323409966   -0.23836871034204    5.81335365895326
C           1.02881013274128   -0.63381411671898    5.14286810179813
C          -0.12513440348770    0.06808060694516    5.55531328325939
C          -0.08968434356639    1.12753126557817    6.40110474092842
C          -1.21272451047198    1.91832996539232    6.79599934961792
C          -2.53117548914327    1.43576058886298    6.94217577258480
C          -3.04291537864571    0.04331098152170    6.95924652390072
O          -2.46123135421715   -0.99852884522711    6.81913228703808
N          -4.42431853413962    0.15214275385396    7.20262476144358
C          -4.83508915458761    1.48556573511122    7.34923174640067
O          -5.96964363922837    1.83483239908609    7.52423782123861
C          -3.59769500978633    2.28614027440297    7.24428689343142
C          -3.44545957323881    3.64338045818084    7.45689367121895
C          -2.14278061826334    4.12089914028803    7.39033784163077
C          -1.05972155503910    3.30283292785961    7.07942624857734
C           0.22660558487982    4.02140506190434    7.04744505882354
O           1.31739479142430    3.60463364863825    6.78832748925897
S          -0.04491284252689    5.75422080203776    7.46664581607087
C          -1.81210190498807    5.54084133265644    7.64306920294908
O          -2.56759391909588    6.42264858140692    7.91394842454182
C          -5.33147935722461   -0.86736778726842    7.40008071388462
C          -5.05391749045207   -2.17122400549490    7.56922259894237
C          -6.06702308938688   -3.14996596083487    7.78219285913235
C          -7.34074907927281   -3.01357960057157    8.23837036581003
C          -8.30957296477941   -4.10256393728680    7.92067575299676
O          -8.05399488832143   -5.18664047941181    7.45360243204108
C          -9.64336364751462   -3.53573707785916    8.21128441588050
C         -10.88277432558939   -4.08585154160392    7.96294453876463
C         -12.01268382987180   -3.32975227890039    8.27753697969697
C         -11.87096038723648   -2.03737924415481    8.81892156793154
C         -10.61071952348610   -1.49213552536049    9.06949376775998
C          -9.49332846991441   -2.25350635540196    8.77267791613260
C          -8.06651869837165   -1.96437368717204    8.92963926804525
C          -7.56409145731621   -1.01671259245114    9.77950131824625
C          -6.19510529882537   -0.82147899116651   10.05266402397884
N          -5.09850617269304   -0.60980348737429   10.31654312915750
C          -8.36614563500580   -0.14370893295550   10.54848529242894
N          -8.96909134605328    0.57839915850660   11.20436716924836
C         -13.02996028766413   -1.27700734865363    9.11446590950204
N         -13.96161931847033   -0.65774605122399    9.35711896572651
C         -13.30379801920498   -3.86173817385318    8.04429157942864
N         -14.33766072996182   -4.31284207745077    7.84696316279344
H          -9.89813112964312   -1.89067281660159    3.22312105646406
H          -8.55145624265058   -1.53658723072522   -1.57073307489365
H          -4.93592032574293   -4.48299087715752    2.68286269922626
H          -1.53437460841651   -5.52885804471883   -2.03264498988462
H           1.09592244910617   -3.00619276071680    1.82187144137947
H          -0.96859323226470   -1.99804092515545    3.86839864158735
H           2.77628940573145   -2.83023625015150    3.30921802402743
H           6.69499254725080   -0.62845235029457    6.16690567349031
H           5.14589760490223   -0.74873136664288    7.03873786664351
H           5.36403093830210    0.48656244000520    5.76599169703149
H          -1.05902274942389   -0.24912556648775    5.11778598368879
H           0.87548295579950    1.48003641184519    6.73829625106240
H          -4.27567945933345    4.29032112183453    7.68877068744305
H          -6.35026758840747   -0.49587983388182    7.40172934206113
H          -4.03994836958841   -2.52767763007656    7.47283131478971
H          -5.81312402416919   -4.15746872010901    7.46560989180376
H         -10.97602245893213   -5.07271860412866    7.53563987429412
H         -10.53896096148242   -0.49362693700671    9.47093136113799
