110
 SCF done       -238.243105222904          0.000833909146
C          -4.41453247545146   -7.05008471006404    3.76350470692121
C          -4.08113571935086   -7.83053086664950    4.85994683235412
C          -2.73966399900412   -7.90819932712824    5.23482878302102
C          -2.37331849568937   -8.65589578216885    6.38156057958518
N          -2.07128970020655   -9.24604765648199    7.31497696871007
C          -1.73508019815810   -7.22618466156669    4.51856749987139
C          -0.39095183724750   -7.27308252070392    4.95874452421392
N           0.69913347056085   -7.27523368526032    5.31035500909154
C          -2.06867465423129   -6.46977960569571    3.39710772195301
C          -3.39946656599824   -6.38887450945878    3.04392778202241
C          -4.00484109840572   -5.55347406653938    1.99239874346206
O          -3.44639697273652   -4.97984264792727    1.08841285241797
C          -5.47021029295497   -5.56551964253017    2.29660216940132
C          -5.71723490223921   -6.67255098775743    3.21820376014525
C          -6.92225717084758   -7.22066149975444    3.53360289062516
C          -7.07622091860677   -8.31032657057761    4.42208417770057
N          -7.23899238219828   -9.19624831721285    5.13091596411674
C          -8.15838361136309   -6.78278080949688    3.00044181091239
N          -9.19115044122157   -6.46084091852083    2.62299112311879
C          -6.30187175504219   -4.57072486952609    1.94010641447171
C          -5.81132025413282   -3.35585199548111    1.30051074932179
C          -4.72014619154668   -2.65042965940239    1.81396580410734
C          -3.88640826033934   -2.94809639563709    3.00365710143758
O          -4.09285450517256   -3.75885177285941    3.87639817986829
N          -2.79541776185780   -2.09247690592995    2.92708913352162
C          -2.93329239924741   -1.15709841619001    1.88055998289044
O          -2.15092277709912   -0.28338819826776    1.63802933262263
C          -4.18802567007341   -1.52789620882904    1.17782023195129
C          -4.76020089648777   -0.99107146239716    0.03722609873419
C          -5.88325895366357   -1.65023020376897   -0.45105123644830
C          -6.38273877703403   -2.80765651592917    0.14702737417197
C          -7.51308064310138   -3.43297903628633   -0.56361958423907
O          -8.06380454380179   -4.45562557979771   -0.28540172483740
S          -7.94763634198164   -2.40630609124083   -1.96933091360689
C          -6.62343426080175   -1.22503516043652   -1.65814124020222
O          -6.41768449528352   -0.27010934958608   -2.34059511206584
C          -1.62091356415501   -2.17582247789132    3.66601440799456
C          -1.39575355015505   -3.09692604888688    4.61698294404517
C          -0.16897794142480   -3.31416263306567    5.32995122824201
C           1.05856179482242   -2.67041095213492    5.05465299783909
C           2.20778541829070   -2.91007314808155    5.87415356797761
N           3.36014304222563   -2.24841049874599    5.62273077757590
C           3.40056031488015   -1.41649982700039    4.62505232175741
C           2.27772809643093   -1.20860348945704    3.79244899911583
N           1.15066579691105   -1.82046473252868    4.00781388911776
C           2.17400337026089   -3.80828603882462    6.96826342058015
C           0.96970695560973   -4.51403589448787    7.19208214277634
C          -0.18512974617683   -4.25689750205051    6.38739113481780
N          -1.34168813707470   -4.91248488949454    6.64267344160397
C          -1.37842187755455   -5.75219551345540    7.63508698017727
C          -0.22711346192680   -6.03793531246205    8.40223303396615
N           0.90327563191849   -5.44303304697250    8.16967016414569
C           3.35356218943763   -3.92503990514920    7.77773866120702
C           3.41946811149019   -4.53411718105364    8.97728592523885
C           4.59733147295381   -4.62676804409748    9.79925850502219
C           5.89802533198926   -4.86797144584423    9.32120197580753
C           6.37188821746628   -5.15874480292768    7.94303217094241
O           5.76839068759684   -5.20317130620317    6.90850026235378
N           7.75680877965909   -5.39299220129610    8.06596564951589
C           8.20024678963523   -5.28883881141504    9.39344059548522
O           9.33628671617413   -5.44541680112651    9.74623615910934
C           6.99261201118232   -4.97361871957651   10.18457659906314
C           6.88648414324675   -4.84495092906564   11.55700521894663
C           5.60535727460581   -4.62260752980102   12.04521801643348
C           4.49731765306028   -4.52266433967943   11.20796830051532
C           3.23377879721044   -4.26669296491566   11.92687776040811
O           2.14013357545626   -4.09268895739522   11.47945289935786
S           3.55961704341031   -4.21916331249927   13.69965575427613
C           5.31800880963256   -4.48350113628669   13.49071923193593
O           6.09833511742663   -4.52694059758835   14.39094380455881
C           8.62631019011244   -5.80956053162413    7.08294809106532
C           8.32827142278703   -6.03219252632984    5.79098957134876
C           9.27825758526963   -6.49692480395277    4.83775944940743
C          10.41491570739757   -7.22628136416232    4.99691464263306
C          11.36929046732712   -7.27336767737966    3.85069971639353
O          11.16470399544951   -6.89448709148073    2.72324655226158
C          12.62163439240103   -7.83283103067609    4.40407573027286
C          13.84757978138413   -7.97135355665214    3.78781475384076
C          14.90332054376112   -8.49564010312023    4.53477175745770
C          14.70566648700149   -8.85437538142566    5.88234127282798
C          13.45823932322268   -8.71639835681767    6.49333311559483
C          12.40849420106041   -8.21327155081296    5.74293448800346
C          11.00235858746143   -7.98224110735389    6.08897188492333
C          10.36798282002752   -8.59646487508497    7.13395433698019
C           8.98646681756537   -8.53332882087267    7.40692578168110
N           7.87580576707601   -8.53125462501917    7.69578287572445
C          11.01723547017792   -9.44594689085239    8.05892947139554
N          11.48880347754595  -10.14904237606790    8.83228748513933
C          15.79547757058955   -9.36238109155755    6.63309053730761
N          16.67268299366751   -9.76919312960039    7.24549629725247
C          16.17831475516232   -8.65767681858205    3.94033922164989
N          17.20117131121160   -8.78151586811729    3.44099836093564
H          -4.82432052128577   -8.35139567314295    5.44346232820478
H          -1.31296993307834   -5.93678576101357    2.84029734908455
H          -7.35846146742765   -4.60842995422487    2.17057928131361
H          -4.35652728416263   -0.12326519702206   -0.45964562315517
H          -0.87690120445087   -1.45368087204729    3.36062078434893
H          -2.18811666955863   -3.76703447969303    4.91766534365748
H           4.33766483420346   -0.90586001114475    4.44995740968211
H           2.31744385141285   -0.54654807918225    2.93837571059800
H          -2.32222230382336   -6.24395398191581    7.82908483349273
H          -0.24332356161423   -6.78004943979538    9.18746390278211
H           4.21013172835470   -3.40635996805325    7.37099059706529
H           2.51206240464099   -4.93907580216197    9.40264808803212
H           7.73732514991685   -4.92768019011161   12.21376959349424
H           9.63615163982844   -5.91616335207595    7.46380761358842
H           7.33820946786735   -5.81003870972791    5.42195545150194
H           9.09277350036968   -6.19697345177405    3.80979848993368
H          13.98575925617477   -7.68079179748621    2.75748596376693
H          13.34793903229488   -8.99168610341342    7.53013405527113
