109
 SCF done       -232.767004463895          0.000311589327
C          -3.11312471604811   -9.43320854255148    0.94895253962474
C          -3.99222355714759  -10.36783837423347    1.47452317726456
C          -5.26991065024911  -10.46389210499594    0.92284196351039
C          -6.18494839373580  -11.41086836808085    1.44861889547433
N          -6.91897892526837  -12.17563287248323    1.88007316221452
C          -5.67017624882064   -9.63644391145813   -0.14543371593856
C          -6.97795612949502   -9.75414602454543   -0.67659334664313
N          -8.03294280172442   -9.83374518180574   -1.11381277640096
C          -4.78200280434529   -8.70157164739538   -0.67680453827585
C          -3.52015365933998   -8.61513469812264   -0.12481940089737
C          -2.41636153306063   -7.71711982436705   -0.51422473701327
O          -2.43660181215590   -6.84166100291619   -1.34615153765697
C          -1.26897563750114   -8.10565381868854    0.35879606519842
C          -1.73818118243925   -9.10363950737435    1.31434616254980
C          -1.04233472741026   -9.60446092333130    2.37402698284260
C          -1.56081669651297  -10.55051421451291    3.28883752182494
N          -1.93096168005735  -11.31107773391432    4.06265226251913
C           0.27589756327607   -9.23124198871104    2.72651307863146
N           1.33722017604582   -8.97912705218519    3.07995026875275
C          -0.02840350574183   -7.61501896806188    0.20390645740638
C           0.32020419674789   -6.62311356230502   -0.80699489268841
C           0.75307555131356   -5.36195026679577   -0.41776242274485
C           0.87008192609523   -4.83267731303410    0.95772558259526
O           0.62022262711356   -5.40120270603506    1.99137278812968
N           1.31825655436894   -3.52127315934680    0.81119671634583
C           1.48668859531284   -3.16318641360155   -0.53653143841891
O           1.89007757195704   -2.09453123172330   -0.91080344751561
C           1.09650465777814   -4.35805176241599   -1.32602086491426
C           1.02954445373547   -4.56260019451679   -2.69228775700901
C           0.60279831782586   -5.82792278934547   -3.09481162619341
C           0.26348500742197   -6.83306136328013   -2.19230834244429
C          -0.16270110243833   -8.10389479201996   -2.81377130483576
O          -0.47121070836557   -9.11962126087621   -2.25888192221666
S          -0.14605172282530   -7.91726841247607   -4.58770212901503
C           0.45288009185157   -6.21253045099012   -4.51571980311770
O           0.67094370150651   -5.55773719358969   -5.48298546900687
C           1.54364603599074   -2.60415975520515    1.82739358748641
C           1.57224844131054   -2.89549885072230    3.13964960883124
C           1.76733921340299   -1.92180763183671    4.15350741109072
S           1.83659373868224   -0.23363423891351    3.81002846612585
C           2.14999020036606    0.18859275275932    5.46723900300471
C           2.14648341660118   -0.95917126244615    6.27989531430961
C           1.93017755945546   -2.15683022633574    5.53085151445195
C           1.89698404523465   -3.40996907444206    6.16898151517429
C           2.04903733219636   -3.47255181405646    7.53416121500130
O           2.03808447621493   -4.60549622960697    8.27045730096466
C           1.86475883589352   -5.84071212903159    7.61414970868453
C           2.21387498676735   -2.27797930251365    8.28291877884473
C           2.26032719260245   -1.05571546330598    7.68360659893890
C           2.37661531069433    1.55935555880387    5.71699464638576
C           2.95346534935683    2.10802530527156    6.81731553676021
C           3.15654112015638    3.50946925526377    6.99500855880176
C           3.34505985629079    4.43220508294584    5.94101920464464
C           3.62415020124809    4.19520451567824    4.51106214348070
O           3.89865043365356    3.17713993726195    3.93216909932759
N           3.63050802792508    5.47200138230504    3.90528424671165
C           3.53957553228419    6.50089396806484    4.86015361731880
O           3.55927394777301    7.67150787270676    4.60444164042886
C           3.41081683108855    5.81047715112369    6.16245992348336
C           3.36467241622878    6.36988427951809    7.42629567568590
C           3.27396288063400    5.47013553030635    8.48178936056472
C           3.17314374198323    4.09463347946247    8.29042365976272
C           3.04809878112517    3.33385281842301    9.54420125919689
O           2.91857194415787    2.15427143288256    9.69942016852800
S           3.10947113433340    4.47065459091514   10.94241592892877
C           3.26162709286688    5.91216982636770    9.89385351444972
O           3.33785828146396    7.03005291967363   10.30275324345243
C           3.56736996040711    5.73050863693068    2.55786929800054
C           3.46740102949436    4.77963913600541    1.60792567068346
C           3.21981344489072    5.06961228718748    0.24418608193034
C           2.73803759195043    4.17569964769499   -0.66236086781033
C           2.81402183398182    4.45874596028779   -2.11954457322184
O           3.06967664123940    5.51442905432897   -2.64518755181831
C           2.56078405185916    3.15419066687540   -2.77817661992609
C           2.64689281493430    2.83451534254292   -4.11659617602990
C           2.41877118713131    1.50925307838138   -4.49293012137878
C           2.12494029577169    0.53887299639399   -3.51596624699068
C           2.02904725671256    0.87388535792445   -2.16380938131882
C           2.23682956823082    2.19295175211270   -1.80016673649265
C           2.19233668988946    2.84502846739704   -0.48906277098092
C           1.53756303548508    2.33519662010466    0.60035309976016
C           1.29332850260429    2.99407873092302    1.82518526872003
N           1.01360634634459    3.44577779613118    2.84314837477166
C           0.89226471534470    1.07935701782289    0.60575315030838
N           0.33440256217246    0.07926557792548    0.68376926306164
C           1.92565724427509   -0.80823026296689   -3.89943779519192
N           1.76267091045113   -1.90124654565127   -4.19872513708257
C           2.49723664319148    1.13690364505783   -5.85667590499687
N           2.56531361370482    0.85123049783054   -6.96338302493033
H          -3.72087679903591  -11.02088607724940    2.28882973926538
H          -5.07125968348833   -8.06305176744496   -1.49774914727817
H           0.77536690217535   -7.90528654931710    0.86772557960834
H           1.27951497998457   -3.79308753618049   -3.40981304704651
H           1.68488518958661   -1.59785314029732    1.45694445386279
H           1.44219748381762   -3.91574608462855    3.46558680668165
H           1.74028423409512   -4.29698564752467    5.57865611618596
H           1.89345750168351   -6.59648742936402    8.39672786706744
H           2.66953796805391   -6.02981484074218    6.89745638234386
H           0.90027414868750   -5.88849717789710    7.09953327816261
H           2.29519120654332   -2.37396941016981    9.35371728954341
H           2.35660993878668   -0.17229154902538    8.29119445759700
H           2.05342394960497    2.20965832992779    4.91543531833141
H           3.24277795146040    1.48096530503133    7.64325824023312
H           3.41639715778597    7.43340240082839    7.59268207546532
H           3.49860171929333    6.78831539622568    2.33240956718770
H           3.53788497604112    3.74179240199317    1.89460368531101
H           3.45959510518043    6.05749543804727   -0.13209305274095
H           2.88840528896064    3.58675232651921   -4.85206337981374
H           1.82357368472667    0.09333810058061   -1.44912313182530
