104
 SCF done       -223.850905056521          0.000541178382
C          -6.13469803956130   -8.17354246442769   -0.88954336936928
C          -7.36274947400817   -8.78743199137198   -1.07310132064900
C          -7.47174025993200   -9.76834814627416   -2.05896157158870
C          -8.71897026827548  -10.40890368003839   -2.27021204857999
N          -9.72802894230922  -10.92366004158037   -2.43388278310827
C          -6.36475065977638  -10.13487010042707   -2.85022187712132
C          -6.50545417081229  -11.14408489757896   -3.83408026458198
N          -6.59921752882617  -11.96074713046898   -4.63094614398422
C          -5.13309401464027   -9.50382111564785   -2.67127528587553
C          -5.03581584360151   -8.53060151765922   -1.69819212917090
C          -3.86498584794196   -7.69598502247821   -1.34977420741205
O          -2.74711858814568   -7.75619793308862   -1.78858835828299
C          -4.39810782362783   -6.69468576843099   -0.37108815401261
C          -5.71512929754953   -7.14719247930590    0.05807867805905
C          -6.35414425096580   -6.81116680968050    1.21579340404714
C          -7.61832271611272   -7.31889732975785    1.59353991712289
N          -8.64758098584846   -7.69326976441259    1.93129591625256
C          -5.79582454008878   -5.96947089262347    2.20091199807755
N          -5.36264437359671   -5.31938204999052    3.04132155610874
C          -3.75478748628608   -5.52941313446817   -0.18656325050607
C          -4.25090157025378   -4.33199022862461    0.46643602712615
C          -3.47948784308456   -3.69968565157104    1.44150806934289
C          -2.16122116193396   -4.11260596863507    1.98143807679254
O          -1.46573016776922   -5.02861141790131    1.62395167637605
N          -1.87983642911289   -3.20988841067110    3.00546825234994
C          -2.89288183687797   -2.24973032832552    3.16614841692020
O          -2.87479770430131   -1.36455058988044    3.97514875420899
C          -3.91896004895697   -2.58083527068963    2.14770107740916
C          -5.13795732630414   -1.98532100240974    1.88326418693919
C          -5.89639048663647   -2.57151384552079    0.87652686153224
C          -5.48783273667539   -3.71711943302811    0.18817769218082
C          -6.44747818743470   -4.16658949078986   -0.83796459242131
O          -6.36128715238887   -5.11107350949170   -1.57336446716277
S          -7.86520483402056   -3.07482011330146   -0.85006384624596
C          -7.20969085216550   -2.03550684778804    0.46527077807101
O          -7.77643202508136   -1.08106693836650    0.89603149007101
C          -0.77661076933639   -3.21834834390557    3.85034601478818
C           0.32808994307367   -3.95840841679641    3.67069724610887
C           1.42954899231206   -3.97511835164350    4.57834338815667
N           2.60267615783320   -4.60740133109735    4.23493791841937
C           3.47642448304617   -4.49134874707289    5.27047776744654
C           4.75623443828990   -4.80162665965453    5.70340462571654
C           4.86263794676594   -4.28406988123468    7.00663218059817
N           3.67484920936629   -3.67194343259928    7.35261365678761
C           2.81783167384251   -3.77493412092893    6.30853335686592
C           1.53960849719832   -3.44472802555454    5.86758826877402
C           5.98961756923653   -4.36724956488208    7.85282320570642
C           6.00552056692744   -4.00502132867879    9.16232769388881
C           7.10917988727859   -4.13318178470471   10.05692454733036
C           6.86321417680969   -4.41343298344389   11.41902831552309
C           5.57586053119224   -4.56873263480314   12.10759735036642
O           4.44579250063739   -4.43642485739892   11.70876955353973
N           5.88746581426671   -4.93528007542071   13.43571684720352
C           7.27250046843965   -5.00545598059874   13.65032359547122
O           7.81035994190779   -5.27214414375218   14.68764799258940
C           7.87956987068271   -4.66913100511227   12.33965185570380
C           9.21506564129728   -4.63174381191350   11.98759475516773
C           9.48282882714608   -4.27611258015701   10.66945363167599
C           8.48755431114670   -4.01560515779144    9.72894463731181
C           9.01433152153210   -3.48388609351985    8.45920442980539
O           8.42541438418736   -3.02177580363951    7.52820966082283
S          10.82141223350790   -3.52658000847567    8.49713035238423
C          10.87149897893693   -4.12346041213841   10.17969291472833
O          11.87716795260480   -4.34398751096433   10.78220183393748
C           4.88440014480854   -5.31990254574558   14.29320990375758
C           5.04264802055564   -5.83880000434376   15.52451378863008
C           3.96123051911866   -6.29433868944294   16.32889611296342
C           2.71987347154265   -6.72970507989899   15.97950063243136
C           1.69496134343511   -6.83771860732952   17.05746654760677
O           1.88537134004553   -6.77934919016117   18.24752545680165
C           0.39976319503628   -6.97994537549360   16.35500813235721
C          -0.87138507490230   -6.99886719421379   16.88928489234742
C          -1.95210800869413   -7.09916748439839   16.01183205268745
C          -1.73060997695643   -7.16447080370611   14.62261303235572
C          -0.43868170079893   -7.15544042264171   14.09399088546859
C           0.63118557261865   -7.07436921880968   14.96937207760372
C           2.07696482966619   -7.07776974682377   14.72540935405801
C           2.65118168593771   -7.56401339657498   13.58217319619610
C           4.03166317218206   -7.76777336617306   13.38143886293000
N           5.13457724311341   -7.97305073287802   13.13937271762630
C           1.92166250185204   -7.98202185395018   12.44679603291011
N           1.38844632565381   -8.32494381533095   11.49074546520481
C          -2.83888419660214   -7.23525501291408   13.74189249079655
N          -3.72615959178804   -7.28610831842928   13.02046009080188
C          -3.27476189133774   -7.12573203926866   16.51694695980531
N          -4.33761672060181   -7.14610056639141   16.94214574519031
H          -8.23152030803127   -8.52146653386322   -0.49171513524728
H          -4.28068238280080   -9.76802017469594   -3.27866069123236
H          -2.74242071828245   -5.47245515553819   -0.57417089337961
H          -5.49281637162504   -1.12144321412667    2.42210591340926
H          -0.89292570484087   -2.53685128998323    4.68090510415655
H           0.41357397570038   -4.59240667823686    2.80040683521216
H           2.76778213443230   -5.06388132919769    3.35399766772613
H           5.53078376471568   -5.32751825502516    5.18281522641731
H           3.49606316095295   -3.22091844284081    8.23281004507350
H           0.77496611356494   -2.91408951724494    6.39614923931215
H           6.86760721816940   -4.80065773174517    7.39909825470825
H           5.08103243866323   -3.70944248798965    9.63741905457655
H          10.00841299224391   -4.84370735836372   12.68547181990702
H           3.90316267772822   -5.14427603908339   13.86633654010675
H           6.02863511806536   -5.88907769120899   15.96188964462657
H           4.13172507610909   -6.27180905332141   17.40161445043097
H          -1.02494607421930   -6.93641430249793   17.95584639363637
H          -0.30811559001925   -7.19890691514702   13.02440934495062
