109
 SCF done       -232.764770298917          0.000446109154
C           0.27569603376856    6.99789966670314   -5.34987327118846
C           0.53223274957957    8.27694869821378   -5.81959073896465
C          -0.55045467424618    9.08452286172437   -6.16812426640864
C          -0.31513335690066   10.39625491502984   -6.65259913725388
N          -0.12070753154501   11.45322385008803   -7.04592015410440
C          -1.87721148193792    8.62401757405953   -6.04441641829932
C          -2.95286059161305    9.47218603363590   -6.40510745284704
N          -3.83275436557236   10.14496031624650   -6.69436153859961
C          -2.13242749063067    7.34010040839900   -5.56457760093755
C          -1.05423147284776    6.54819513050490   -5.22810172532180
C          -1.07124081250636    5.18228034034108   -4.68279871032596
O          -2.03467493268217    4.50464025402560   -4.41658593051523
C           0.37060511364618    4.80675044319604   -4.50623065749015
C           1.18531452900930    5.96130721665449   -4.87390868860720
C           2.54497217541294    6.05778898893355   -4.80789377775950
C           3.30945660044799    7.11926800621351   -5.35025752078721
N           3.99451484671559    7.90519394018124   -5.82688707329469
C           3.38864449253632    5.12987361261508   -4.15984881199748
N           4.14198724141571    4.47363241853955   -3.59451410072389
C           0.78362444922836    3.57402156609567   -4.15755525877094
C          -0.12263086398604    2.45091155496169   -3.95568088538804
C          -0.07681368364688    1.69856057693003   -2.78558371068732
C           0.84173831687755    1.82763462281036   -1.63524824118428
O           1.75886315442664    2.60066034606952   -1.48984257122584
N           0.44297442212619    0.86256418303527   -0.71508903238931
C          -0.65781494368266    0.12233893818841   -1.16056457213549
O          -1.19687908251684   -0.77198989911835   -0.57026871744930
C          -0.97800934669019    0.66765549638366   -2.50835063417824
C          -1.96828387340337    0.31065462699477   -3.40042966075659
C          -1.98522270449017    1.01243760592101   -4.60479133591877
C          -1.09040524259740    2.03869892714893   -4.89041230502427
C          -1.23482537501131    2.60126625303480   -6.25262796910047
O          -0.53971070637465    3.41328713480813   -6.79164660111330
S          -2.63076005649926    1.83404028463613   -7.05967385855474
C          -2.96580487249155    0.73312209070331   -5.67643354988154
O          -3.83938806824442   -0.07539599902061   -5.67067681365752
C           1.06991292439127    0.77710640663095    0.52582674117062
C           0.57014655215360    0.16208146346147    1.60519330626623
C           1.21958879973507    0.10368917977732    2.88283679268994
S           0.91555561114873   -1.32500559221977    3.82576932707140
C           2.06488357284522   -0.89825934575177    4.99694367524482
C           2.66039402514258    0.31213002425842    4.71499948063579
C           2.14964931441732    0.92470709395454    3.52131040540639
C           2.61529337022075    2.23176228901610    3.16711370331250
C           3.65904364617510    2.76251112371329    3.90326524832258
C           4.20368362440553    2.13322902214694    5.02722196479050
C           3.69778320714290    0.93365499686727    5.47471027257975
O           4.08383415095154    0.26978859274116    6.58013570064339
C           5.10153758193145    0.82433651272030    7.38477622780129
C           1.94005601509098    3.02202033127188    2.17052398642848
C           2.57423748545400    3.89970009199704    1.36032173417280
C           2.06882372990361    4.74609115312754    0.32466275379720
C           3.02573172588062    5.54981774639602   -0.34354972711465
C           4.50424444954553    5.56221139031242   -0.22199200542042
O           5.23978412400909    4.97680144318846    0.52599968967761
N           4.97191667757002    6.46138455843557   -1.20604054556118
C           3.92425476286744    7.07525128772182   -1.88657716886469
O           4.00532867536159    7.88182423722577   -2.77583244690925
C           2.69535594756058    6.48390800814704   -1.31713540231776
C           1.39055335635809    6.71581602882556   -1.70345120554243
C           0.44596362255482    5.87439591754920   -1.14207736791494
C           0.73729851017882    4.89804486241676   -0.18031713073558
C          -0.43077851802017    4.05690572027576    0.09682064630552
O          -0.55520801473169    3.08518372983224    0.78777176252370
S          -1.85713779378446    4.61069990594762   -0.88462384334123
C          -0.94614343643945    5.92868972459930   -1.62475462422026
O          -1.38577574317294    6.70388841744511   -2.42874742552711
C           6.32072556793590    6.65673330728555   -1.41345544113950
C           6.83223137805069    7.45354580070169   -2.36804971187398
C           8.22809070867697    7.64963287301061   -2.54166251805221
C           8.78714342089702    8.61824202568033   -3.31283998291532
C          10.20328466210181    8.52565271634354   -3.75420095451471
O          11.06349412724773    7.80427012308530   -3.31116230032738
C          10.30776746965535    9.46905449047894   -4.89354677243848
C          11.37771587511867    9.67814076351842   -5.73783775965951
C          11.22854183616730   10.60137725497087   -6.77399085979371
C          10.00907483408922   11.28599559202711   -6.94254683735689
C           8.93450119124541   11.07412876465239   -6.07713769899917
C           9.09096535946287   10.16512395738010   -5.04445921438023
C           8.18200109577081    9.76136057109638   -3.97098248791292
C           7.10336202337194   10.47905834709326   -3.53347685187803
C           6.43638096264815   10.24103655261279   -2.31019748435597
N           5.91361893418214   10.13663803353290   -1.29445409211004
C           6.61592962881556   11.63400688832786   -4.18529592424020
N           6.19075902406098   12.57562698279511   -4.68263909638168
C           9.87382800152648   12.20612306318088   -8.01218791669054
N           9.76095389720900   12.94888606101991   -8.87579737573548
C          12.30425993058334   10.84507609303643   -7.66172928358189
N          13.18638265198837   11.02705182126072   -8.36876034376360
H           1.53418307362034    8.66534827701486   -5.91606117820375
H          -3.14166771826183    6.97584528673506   -5.45056490764852
H           1.83030041105680    3.36805558608311   -3.97202667670417
H          -2.68560841450946   -0.46745196594132   -3.19379748797255
H           2.00988884983154    1.30943001089103    0.53996880621787
H          -0.34665880094171   -0.40345119746896    1.52089300944914
H           2.27572675217296   -1.54344185521921    5.82535886954866
H           4.03043787038179    3.74263749611499    3.64654897557095
H           4.99763963727812    2.63279305155534    5.55799674651182
H           5.23429026406451    0.12897294408491    8.21140738876185
H           4.80993514832964    1.80330321962874    7.77588173832168
H           6.04066178445384    0.91580399057080    6.83185280140595
H           0.87726153189143    2.85868314938403    2.10640268484017
H           3.64856988969690    3.95870574999073    1.46373387458324
H           1.11758070757785    7.47513368329364   -2.41833623715647
H           6.94006091934920    6.12232857694172   -0.70353095648914
H           6.16467471900221    7.96448131234004   -3.04446684064869
H           8.90802454041580    6.93850351083043   -2.08691190997382
H          12.30427809561109    9.14130003386791   -5.60162048986086
H           8.01161760674348   11.60889774924552   -6.23787853459217
