150
 SCF done       -254.134697921781          0.000996204231
C           4.37045150569448   -5.01037349154332    1.79614155237729
C           5.46088753301823   -4.17094167140009    1.95846160116553
C           6.11541992413579   -4.16228092802920    3.19131899447742
C           7.23039500387956   -3.30867308405569    3.38050021415659
N           8.12986909561754   -2.61563756583367    3.52691028034398
C           5.68746107808203   -4.98363631206012    4.25241185256550
C           6.37455381040478   -4.95658958294144    5.48923785697654
N           6.91532190178590   -4.94758009457964    6.49887217597813
C           4.58442756791110   -5.82263580511837    4.08573402219025
C           3.94635832649594   -5.82186464310173    2.86407633884614
C           2.76018426433961   -6.61431938199601    2.45599870821314
O           2.15305488548956   -7.38235165341308    3.16753504770775
C           2.46548734793116   -6.18858551527822    1.06701096383333
C           3.49369751065483   -5.25019194165863    0.65267888747831
C           3.67764480520419   -4.74068085276991   -0.60630246428979
C           4.71371273560568   -3.84827752332426   -0.95439001308987
N           5.53114463484977   -3.11671697300773   -1.29176397586251
C           2.89102892599663   -5.05708682728852   -1.73509270105862
N           2.31971942011483   -5.28211699509590   -2.70565880383198
C           1.32259465462607   -6.44049698880487    0.36285018409584
C           0.29673662990481   -7.40628991236969    0.60508223064804
C          -0.99573569321839   -7.13651975078127    0.11778103485026
C          -2.02208785844451   -8.02843472088729    0.29576774179489
C          -1.80000944589086   -9.25588102429278    0.93448957332825
C          -0.51255683001558   -9.53332526682223    1.40753412148508
C           0.51592290032772   -8.63614318275885    1.24417612026177
C          -2.88324182769365  -10.21644237442566    1.13368747108927
C          -2.89068740808106  -10.90392963651106    2.43607677384966
C          -3.08184610935890  -12.28224255738860    2.51718905570607
C          -3.06743938151460  -12.91960900943982    3.74273313345201
C          -2.85991017112832  -12.19381460944015    4.90462819412663
C          -2.65581463989967  -10.82587612802729    4.83338712899743
C          -2.66436703532699  -10.18513876941809    3.60872309703177
C          -3.80789047020822  -10.47541029678044    0.17126234074749
C          -3.63918737626380   -9.99694799383025   -1.21069700522658
C          -2.41958694936780  -10.13633163067879   -1.87178366853260
C          -2.27318690029192   -9.69428617017463   -3.17254004290807
C          -3.34039209249581   -9.10899435027561   -3.83436709786664
C          -4.56073386361481   -8.97967346287871   -3.19174003275876
C          -4.71301094519657   -9.42671189593230   -1.89287917945968
C          -5.01890732076303  -11.25836297789685    0.41995446116484
C          -5.77281047832127  -11.09397536865120    1.58540510631365
C          -6.94136736144171  -11.79389681774438    1.77533417534910
C          -7.41304920213524  -12.69402525615461    0.81110800420273
C          -6.64927946167705  -12.86334619365204   -0.35031295980654
C          -5.48482947567175  -12.15550652358189   -0.54373373156293
C          -8.65696892075102  -13.39841261303064    1.00507366930262
N          -9.33975205064890  -13.96944541034219   -0.04841101972877
C         -10.48349357840259  -14.52840448249556    0.42773678034062
C         -11.64034841507634  -15.21298165462001    0.06206643720477
C         -12.35347527266989  -15.42738785981286    1.24418433087621
N         -11.65140982848929  -14.89284294376642    2.30495477928850
C         -10.50952740655432  -14.33030351538652    1.82671376820350
C          -9.36487268313278  -13.61520590334487    2.18554564088144
C         -13.61882695542908  -16.06831423403517    1.35552219472983
C         -14.29568577656567  -16.33029188874304    2.49343276246305
C         -15.59510197867798  -16.95430753988953    2.57016010046233
C         -16.42215022158893  -17.12879950172168    1.45376810840589
C         -17.65921686207714  -17.71827821313716    1.57275789415485
C         -18.11939105219239  -18.18496423530572    2.80647423570952
C         -17.30703310381017  -18.00323767738255    3.92746450927121
C         -16.07938931137959  -17.39211372893683    3.81028490608382
C         -19.44542568195245  -18.80009859454844    2.90366188308572
C         -20.50567800507233  -18.13046337178724    2.13244989100974
C         -20.62741894074050  -16.74236433401188    2.17352877543663
C         -21.61609259988869  -16.10311934227055    1.44988996044246
C         -22.48716101669618  -16.83720386688538    0.66172509192115
C         -22.36045058617715  -18.21523612226232    0.59705007149966
C         -21.37818692170801  -18.85858900162824    1.32534666873865
C         -19.68856234952177  -19.92405082334431    3.62384944270300
C         -18.61974613541454  -20.74291687167102    4.21898130236673
C         -18.78189834061246  -21.26469512581389    5.50253679319933
C         -17.79385894378263  -22.04810826678560    6.06881030336794
C         -16.63745680953809  -22.33168928881087    5.36116504211124
C         -16.47726559966517  -21.83425242379855    4.07784208891103
C         -17.46013294623662  -21.04796037225307    3.50817873605668
C         -21.04461139129464  -20.42215070694415    3.85812755228185
C         -21.31272818337976  -21.79078970039382    3.74599495069171
C         -22.55995509351064  -22.28962638499189    4.02935877328636
C         -23.59572341109251  -21.43753615560089    4.44093350211853
C         -23.33719043413221  -20.06100308851767    4.50491527827080
C         -22.08323305076627  -19.56709641355251    4.23871605189531
C         -24.90484411387613  -21.92773017938983    4.75298479547937
C         -25.26707212408589  -23.15158754827684    5.22076218799644
C         -26.68064284319239  -23.59106082802271    5.09525494761394
O         -27.63677274572803  -22.91072153276038    4.80769333490395
C         -26.65400180952597  -25.05272423292937    5.34137124451455
C         -27.68067729570599  -25.96401477388201    5.21766982246224
C         -27.40080385112914  -27.30928141698222    5.46518233407885
C         -26.09845436643289  -27.70553010747565    5.82655968724303
C         -25.06874556009747  -26.77253217431959    5.96093060572758
C         -25.35269855134717  -25.43873570539511    5.72035060499894
C         -24.50893435102705  -24.24520453641800    5.79416913386890
C         -23.34103595080349  -24.15534009929268    6.50518973306611
C         -22.66436638026991  -22.94827141691792    6.78090103459974
N         -22.09111971944747  -22.00513545118256    7.09537860180626
C         -22.71529324831603  -25.25672056655977    7.12529999954566
N         -22.16390203425752  -26.12604234346236    7.63247379597277
C         -25.82702280685443  -29.07797924042582    6.05075713913292
N         -25.59702025725512  -30.18514488348107    6.23014353166349
C         -28.42536969938267  -28.27796831913086    5.34280850042012
N         -29.26786201368518  -29.04651284071527    5.23682834122527
H           5.81449160404719   -3.52436389781132    1.17129369090939
H           4.23981077275640   -6.45572867173207    4.88932243904334
H           1.12897066909975   -5.79871888197590   -0.48977079623816
H          -1.18406463370326   -6.19499195716185   -0.37781914172380
H          -3.01412654305131   -7.78230472733180   -0.05131223975641
H          -0.32308465210612  -10.48178040769688    1.88879130436948
H           1.50485132616584   -8.89776915615623    1.58014746874974
H          -3.22952019689900  -12.85306647059050    1.61209605974169
H          -3.21401897733121  -13.98858802302197    3.79181890319570
H          -2.85081996809837  -12.69399072582532    5.86153810461163
H          -2.48635075625198  -10.25596136956385    5.73497760903452
H          -2.50730674927487   -9.11706637047270    3.55557049046652
H          -1.59042273596955  -10.60675443707870   -1.36341370531776
H          -1.32346009021682   -9.80863966732907   -3.67358402578020
H          -3.22259200602602   -8.75997848340362   -4.84917918856647
H          -5.39732549736861   -8.52881955072139   -3.70522249271572
H          -5.66371984875747   -9.32036877135457   -1.38945597889041
H          -5.44649422738714  -10.38552321641843    2.33201717541568
H          -7.51939759271982  -11.62918756656830    2.67095312614948
H          -6.95800934011019  -13.57157177397377   -1.10566255727483
H          -4.91029918980207  -12.30635224024971   -1.44677546760677
H          -9.06857654838929  -13.89984296637897   -1.01316124504438
H         -11.94833515858391  -15.52572062127825   -0.91564492105741
H         -11.95921018589187  -14.90614230605919    3.26088613262053
H          -9.06313597190629  -13.31022775139898    3.16708553529640
H         -14.04068906404387  -16.36254171307770    0.40513992747404
H         -13.85055856388443  -16.08388220750708    3.44962911148206
H         -16.09935910696595  -16.78137914101298    0.48460060399255
H         -18.28251146933746  -17.84000475844768    0.69786392796162
H         -17.65793406914082  -18.32849442803723    4.89574077150692
H         -15.47064188739272  -17.25161894003004    4.69259264683140
H         -19.94930145747617  -16.16978914164309    2.79039424078221
H         -21.70664414183960  -15.02789724513411    1.49887747123165
H         -23.25752021954410  -16.33675734309112    0.09430017182459
H         -23.02781155854129  -18.79072058453994   -0.02759130506354
H         -21.27090490076163  -19.93161386286018    1.25911301690452
H         -19.68265005495544  -21.04770909776985    6.05901979647757
H         -17.92994089088223  -22.44069563889795    7.06557592284628
H         -15.86669815482176  -22.94446685224431    5.80454724955706
H         -15.58400302142650  -22.06466546870546    3.51577223519094
H         -17.33867875313603  -20.67725014596346    2.50086695890708
H         -20.52545334087133  -22.45732365823895    3.42441535029718
H         -22.75791429802645  -23.34393497251079    3.89752706050774
H         -24.12634959818210  -19.39291961200989    4.81643903079094
H         -21.88861943727306  -18.51040144712659    4.34097101393647
H         -25.73297734907671  -21.25922536919372    4.53702125131942
H         -28.67249406386685  -25.64618535094514    4.93401801952498
H         -24.08170468340310  -27.11117944332418    6.23408184382459
