110
 SCF done       -196.691084733739          0.000688660607
C          -9.13901695884675    6.00825644779809    3.47899945982297
C          -8.70412873307846    6.34295642057843    4.74970768702481
C          -9.43785598449787    7.28408419455009    5.47602119129981
C          -9.00514866888776    7.65058020674758    6.77396383645565
N          -8.64604200773732    7.94311172524161    7.82129211480521
C         -10.59591813338895    7.87779670454983    4.94011096544934
C         -11.32149195720491    8.82533133437276    5.69968305316985
N         -11.92395213105693    9.59521574028083    6.29682957730248
C         -11.02767305148198    7.53674511918750    3.65569265422409
C         -10.29296201298251    6.61183535988745    2.94826158283733
C         -10.52942852002973    6.11378607507724    1.56542493712734
O         -11.40869033039700    6.49875723543363    0.82755308056861
C          -9.42491755681709    5.17136760472499    1.30396503765998
C          -8.61343864099601    5.07017739622148    2.48842012750617
C          -7.58821258775942    4.17786559553555    2.71100322751010
C          -6.80388444775531    4.14212094250565    3.87965143592151
N          -6.11710436531601    4.07526973205331    4.79783844721682
C          -7.22732893947864    3.15095117825812    1.82170323532399
N          -6.91806002868184    2.26603366901233    1.15502956321026
C          -9.08523071062096    4.60064963108730    0.09222110733755
C          -9.84993756193875    4.50163626827131   -1.07014198294255
O         -11.17456045745485    4.81962468334101   -1.07950537692694
C         -11.61964570702698    4.71962635974056   -2.32274339718347
C         -10.63630771956235    4.32905436071506   -3.17955085965876
C          -9.47023179946477    4.14998205507991   -2.39011497977367
N          -8.28114942949472    3.76463055547151   -2.91216895551896
C          -7.15998756094976    3.25932602225686   -2.30197946515330
C          -6.00432650208758    3.12049448902642   -2.97968193121441
C          -4.76949200920837    2.56693753400405   -2.48889979432589
C          -3.63938966569342    2.68199285613649   -3.26876911922692
C          -2.41150053377779    2.14810363142171   -2.83179951802291
C          -1.15730264591038    2.13441832497530   -3.42526728923698
C          -0.79525302245276    2.74662968526559   -4.73548130613778
C           0.42794711811162    3.69282634033400   -4.63180943373384
N           0.50355895073489    4.70067198432814   -5.66603208310929
C          -0.57718672073964    1.66054318166045   -5.80372156578796
N          -1.86219411564989    1.08749886534792   -6.16433677170711
C          -0.28495281492538    1.39790428631482   -2.53726044345555
C           1.01424033044384    1.06071390061704   -2.62666238338194
C           1.70312244351652    0.28633251571461   -1.55043301477737
C           0.82124799238991   -0.13196338491457   -0.42038692963218
C          -0.47889701402790    0.20346926625786   -0.34801569654463
C          -1.07904185215842    0.97646374940676   -1.37159908230477
C          -2.36203935825699    1.44322297192535   -1.55721403276194
C          -3.53737975982606    1.34572878466289   -0.77446077767223
C          -4.69310390496799    1.89385841497616   -1.22230665286003
C           2.88788858972526    1.10961539783834   -1.10647271002381
C           3.00940842517561    1.66247365122257    0.10231553852860
C           4.14576416245667    2.43521160782670    0.51432638256366
O           5.12688924371507    2.74611861242658   -0.36408691416809
C           6.06813510383183    3.43009761255301    0.29756837566255
C           5.73898422115818    3.58273986186182    1.60794671090005
C           4.48266118759587    2.93777244576332    1.76519343596734
N           3.73424334669192    2.80475735763667    2.91416932059690
C           4.17003825468255    3.02687291523940    4.15959247364872
C           3.39547348735800    2.84393686217165    5.27200374154969
C           3.80783543897870    3.03647343098406    6.59565714455444
C           5.05805090753183    3.17082359761310    7.16079968988560
C           5.13194712560807    3.78151775865990    8.50687205523905
O           4.20972857022652    4.04871751693570    9.24435095644771
C           6.57309323847083    4.03576200904847    8.75046504882046
C           7.16952135375999    4.67247558890608    9.81634320553849
C           8.55828806282164    4.82158546886942    9.80051902900486
C           9.30756626877259    4.33533811820758    8.71312057916568
C           8.69133123649420    3.67978347886843    7.64402243551548
C           7.31697743942264    3.52483819315021    7.67075286734764
C           6.39638010044705    2.86455466829707    6.73618664254914
C           6.80102360982750    1.93539006152584    5.80385479848186
C           5.92228672300723    1.11009201305021    5.08239951474916
N           5.24116717791808    0.41619029110416    4.46996213495063
C           8.14547244854154    1.65309125801712    5.49402832587678
N           9.21929545344487    1.40112936960821    5.17393244128282
C          10.71238061672438    4.51549677555233    8.69839690568041
N          11.84796299457318    4.66100063458846    8.67277636518178
C           9.21280432503693    5.46730796107201   10.87624577109496
N           9.72528926997433    5.99237461002562   11.75573510305017
H          -7.82021730528320    5.91017312942680    5.19075150642361
H         -11.91191909797146    7.98552627632312    3.22917806087613
H          -8.08169930124187    4.21288702972856    0.01339830627128
H         -12.65556107673284    4.94060843877215   -2.49217253895900
H         -10.72117323049214    4.16935900006871   -4.23476726427540
H          -8.22712868657544    3.82609280422107   -3.92229096679407
H          -7.27089771035007    2.94762310001512   -1.27719520870307
H          -5.97434007750315    3.47458904869722   -4.00484930645217
H          -3.69332486255965    3.18289949391353   -4.22513896565662
H          -1.64834761260096    3.34727791960730   -5.07113051417474
H           1.35369362697077    3.11493117768313   -4.67760235456218
H           0.39713096566564    4.20965748691382   -3.66860482131515
H           0.53224440811498    4.27282916931936   -6.58537839485234
H          -0.30743820877596    5.30905807708801   -5.63259093980899
H           0.14593336107788    0.91882356361242   -5.42441315525731
H          -0.15561194176766    2.11068264738106   -6.70879704296892
H          -2.29895277038399    0.67801370583064   -5.34414066812825
H          -1.74703414141035    0.35488458680538   -6.85581237982766
H           1.62974557574757    1.35040661931352   -3.46589508843898
H           2.11865313761620   -0.62324458833472   -2.01590045359371
H           1.28907573482233   -0.73630260108602    0.34235275604548
H          -1.08841580427925   -0.12197406691923    0.48268823814560
H          -3.50450124381607    0.83244622798475    0.17492998432516
H          -5.58258357616044    1.81306998477910   -0.62098635152104
H           3.66153888150294    1.26196525513671   -1.84533088317065
H           2.23700734533168    1.52069083735049    0.84486813967851
H           6.92256884546827    3.75732089696690   -0.26028459860519
H           6.31364301359276    4.09293403601765    2.35201556556826
H           2.82668928417837    2.36779535821663    2.80957446632019
H           5.16759555246523    3.43174786524438    4.24212333903847
H           2.35873562672292    2.57123794062510    5.12503404563071
H           3.00716419976865    3.16040646367406    7.31953595901597
H           6.57995487539024    5.04517092622064   10.64006034142808
H           9.29889291948262    3.32228304602869    6.82780433871843
