134
 SCF done       -239.227098874881          0.000571432026
C         -11.36860130509720  -13.57432371631121    7.13438566530106
C         -11.35136169547648  -14.16911910485609    8.38401724557895
C         -11.00828422397012  -15.52063252033077    8.47231570422866
C         -10.98051311122506  -16.15042678629420    9.74095350905506
N         -10.95895492839252  -16.65433416349671   10.76892884297324
C         -10.68706491668778  -16.26954907722269    7.32456245356480
C         -10.34586953923881  -17.63775080189030    7.44269669858374
N         -10.06376981605386  -18.74556466385136    7.51275759567716
C         -10.70032032164814  -15.66331894142596    6.06676514369583
C         -11.04083615877415  -14.33039594037275    5.99289608749608
C         -11.12608286908433  -13.47457721964216    4.78793056804426
O         -10.82112734831765  -13.80087452131346    3.65763081770535
C         -11.52322402738593  -12.14319865677129    5.28229822868223
C         -11.68385199911004  -12.20854456390505    6.71392718613366
C         -12.12145056685517  -11.19791149667576    7.53172600664993
C         -12.26979821568622  -11.31891424762513    8.92820907116153
N         -12.39762590589691  -11.36554907175075   10.06803342561095
C         -12.49729868437403   -9.91757370914028    7.07352216591171
N         -12.83384539983200   -8.86515935753703    6.76208424977150
C         -11.45198448951363  -11.00694253302563    4.50989111720753
C         -11.41776367978092  -11.00604342974493    3.10360442755435
S         -10.31319597564870   -9.91561429003840    2.29957982343387
C         -10.64388449631342  -10.63936137757775    0.76005177091512
C         -11.64940630186844  -11.59918741803591    0.86932028921722
C         -12.09908112008381  -11.79440212261700    2.17537919253836
C         -13.33264173615840  -12.58424598656370    2.48880022958733
C         -13.62827394601790  -13.63984839564296    1.42237208293305
N         -12.76512446916009  -14.76445583792017    1.61621128466840
C         -13.53447795345457  -12.98723300123261    0.00007694283525
N         -14.57618681131360  -11.94614710103598   -0.06375051313335
O         -14.23336493677899  -10.78750419864763   -0.09488222763373
O         -15.72184102674067  -12.33668824005549   -0.04345800242473
C         -12.16261584533540  -12.39899174070605   -0.28918532286537
C          -9.91285801871405  -10.29802818857846   -0.40438370706338
C          -8.96848827720339   -9.32811670245404   -0.44928619325322
C          -8.11986593250646   -9.01461651193919   -1.56287306891635
C          -8.20725521057790   -9.66798366655056   -2.77493823914546
C          -7.26682666384973   -9.41337324329594   -3.79004062955922
C          -7.09219987466024   -9.98750353140945   -5.04329293575975
C          -7.92075121615214  -11.00180999099206   -5.75605619806744
C          -7.60217579578851  -12.44196395202015   -5.29647766049293
N          -7.89053955894113  -12.62010341904702   -3.88406383366015
C          -9.43499901223807  -10.75180275220560   -5.64685101115445
N         -10.10108285171404  -11.37754137024837   -6.77798241065843
C          -5.87520553172618   -9.42709501271525   -5.58603880009490
C          -5.19448947155947   -9.71267168967907   -6.71096597452726
C          -3.87749107042564   -9.08666767028266   -7.00467157650498
C          -3.47541513497339   -8.00020462853830   -6.04833028683980
C          -4.17493849532729   -7.71994332920570   -4.93489840551208
C          -5.35758626962661   -8.43709973993264   -4.63087419919124
C          -6.20544639265739   -8.44082782946856   -3.54481973823957
C          -6.18197618640967   -7.73205744170896   -2.31908054508936
C          -7.10659510913133   -8.01248960267801   -1.36983586971844
C          -3.73681061936298   -8.58782084947705   -8.41662334400159
C          -4.76722998151311   -8.28715815172130   -9.21120657315531
C          -4.68236626194222   -7.84092009359597  -10.57386540256760
S          -6.06178611989832   -8.09431285450272  -11.58398208245650
C          -5.24195397282214   -7.44257683320300  -12.98147002460743
C          -3.94599008094905   -7.05063651337963  -12.64018483875270
C          -3.64702833080850   -7.24928301585662  -11.28311228119328
C          -2.36175708852487   -6.78684262612267  -10.67106530938978
C          -1.69725006956815   -5.70223408925716  -11.52484330537696
N          -2.41371966223216   -4.46738736588576  -11.38990310815395
C          -1.59641883619482   -6.22104599389738  -12.99451363667960
N          -0.79148536652676   -7.45802595200204  -12.96178265437590
O          -1.34106631162343   -8.51090556904638  -13.18692356349384
O           0.37452336764692   -7.32788748430060  -12.66627684991724
C          -2.96769621935282   -6.46657990712593  -13.60584719296934
C          -5.99062171087027   -7.35114139296758  -14.17094299556031
C          -5.60495215872781   -6.87061678848197  -15.39116362237780
C          -6.52024273602275   -6.77454634270677  -16.44998739862683
C          -6.32638620651836   -6.26699110728847  -17.70976156445147
C          -7.33193237354407   -6.58814299158122  -18.75281882453331
O          -8.42601066017169   -7.07451895902326  -18.58562448130162
C          -6.69159177567974   -6.22842035236119  -20.03946995024424
C          -7.15864206518008   -6.43201989273031  -21.31943904380512
C          -6.34108487269448   -6.05289276346950  -22.38637368039468
C          -5.07663245400627   -5.48659126040426  -22.13888881942257
C          -4.61973283924845   -5.27368173610771  -20.83608478950782
C          -5.43754072468289   -5.64162138780434  -19.78189249138110
C          -5.25220812282257   -5.53539273078203  -18.32945276087799
C          -4.32087566315418   -4.71616212143679  -17.73629361741577
C          -4.24781009834305   -4.39843481190156  -16.37035746775624
N          -4.11890514792904   -4.06628569246838  -15.27607763649805
C          -3.33716980906467   -3.99460899722852  -18.44761601630071
N          -2.50233184100329   -3.39408365141186  -18.95699829933802
C          -4.24720027318101   -5.13095424260812  -23.23133898269193
N          -3.56783328352733   -4.84533473555133  -24.10747158484427
C          -6.78016048882312   -6.24824739085253  -23.71776986136381
N          -7.15316227806648   -6.41507145206067  -24.78750102793308
H         -11.58811131781512  -13.62627808398408    9.28524694833569
H         -10.45510787443783  -16.22274910912466    5.17688862274472
H         -11.29151133250601  -10.05330930266906    4.99828400429465
H         -14.16773296045358  -11.87754668449808    2.55037334243713
H         -13.25946606679383  -13.08239293159678    3.45227731248566
H         -14.66596226584298  -13.98691333492186    1.53232330797351
H         -11.81278027242094  -14.49245115506838    1.82610001471136
H         -12.79398511370061  -15.43003242634484    0.85624546241492
H         -13.80739174424742  -13.74704843445464   -0.73990492138235
H         -12.22085268345155  -11.77069868568891   -1.18068791806509
H         -11.46428979292010  -13.21590139751856   -0.49887305772688
H         -10.12424970768275  -10.89074568531822   -1.28197179214406
H          -8.79670468845563   -8.75242530358625    0.45297571491995
H          -8.96222852036142  -10.41573081152264   -2.94472874367662
H          -7.66434223537456  -10.95645160853331   -6.82044140988741
H          -6.55430863288833  -12.66854209415058   -5.55636437936616
H          -8.25457495848641  -13.11133390596197   -5.86144635111387
H          -7.21212410289744  -12.11626266212455   -3.32163913989118
H          -7.83083385932378  -13.60148987850643   -3.63774244917743
H          -9.62182378788736   -9.66773637891389   -5.57215244445977
H          -9.80881212442203  -11.23406946184011   -4.74329767775230
H          -9.88393473138402  -10.88321706249361   -7.63752178751054
H         -11.10694664759561  -11.35335648650479   -6.65572110531560
H          -5.54090383987127  -10.45318311880664   -7.41974731281304
H          -3.13326432808836   -9.89657587829884   -6.89283487277252
H          -2.57002033479880   -7.46638079192780   -6.29214384965292
H          -3.84021002063313   -6.94903295479729   -4.25637327074890
H          -5.41714716934377   -6.98859570835088   -2.15014357938418
H          -7.09051697418522   -7.49085557093903   -0.42397498114578
H          -2.72024990014201   -8.47938646587957   -8.75765153274369
H          -5.77605486289028   -8.44072589935129   -8.84895618768818
H          -1.67340420006512   -7.62928326217587  -10.55839171577404
H          -2.55803793689696   -6.37248221319068   -9.68061898412291
H          -0.67530595894305   -5.53673273344431  -11.16232408886269
H          -3.38149419460479   -4.55475214698571  -11.67489852083276
H          -1.98373061663781   -3.71389151459458  -11.91065824875011
H          -1.02733926671499   -5.49549741977230  -13.58449303090325
H          -2.85290168467713   -7.15132955123543  -14.45124966518306
H          -3.35861299958921   -5.51754962588930  -13.99695062923254
H          -7.02193135753804   -7.67225122709457  -14.07564500939034
H          -4.58938502014235   -6.56829890489001  -15.56679668861265
H          -7.50272670296099   -7.21014998659216  -16.29515262415193
H          -8.12727723593494   -6.87589453486718  -21.49194029580170
H          -3.64227693801282   -4.84284498092288  -20.68846185519371
