138
 SCF done       -274.869472993643          0.000709497260
C         -16.27429624341213   -9.99027577736427    5.00105241259971
C         -17.30188238665467   -9.65105344794289    5.86438615623087
C         -17.85997483031029   -8.37395183552023    5.76657348085971
C         -18.91350465022367   -8.00776603253965    6.64008290006713
N         -19.76310598431851   -7.71585706015138    7.34968457870990
C         -17.39676017430819   -7.44436272831114    4.81674895102958
C         -17.97996273209389   -6.15716066868766    4.74276227319770
N         -18.43771974763463   -5.11000616100151    4.66742727159223
C         -16.36109479188144   -7.79141262919184    3.94670262384191
C         -15.82040786789243   -9.05379963096204    4.05331469199618
C         -14.72880974212328   -9.65670787984735    3.25483831368851
O         -14.11779440060378   -9.10699361698574    2.35689751531428
C         -14.55706284824780  -11.01358814058365    3.77171835746530
C         -15.49497380662516  -11.22232569233365    4.85188493747182
C         -15.64854698144575  -12.34464551583465    5.62880025498009
C         -16.58401275929528  -12.45975713556831    6.67835487205535
N         -17.32001494688125  -12.61543896269846    7.54530904747526
C         -14.90363697624000  -13.53552703451625    5.50782024767943
N         -14.33851595204896  -14.53574031193309    5.46956316939084
C         -13.65610640793114  -11.95215154235839    3.31455260438699
C         -12.69757685533036  -11.88282539547425    2.30509764109652
S         -12.37273775797823  -10.50799242242150    1.28059954619432
C         -11.13756283815212  -11.37087344545708    0.43536493890073
C         -10.99337238054345  -12.67749767741856    0.92010663626972
C         -11.84630984727254  -12.95788699948755    1.97375343515735
C         -11.87025582872753  -14.27892328577278    2.67957017966668
C         -10.62803579465224  -15.12057901208754    2.36425992901138
C          -9.45485756351649  -14.66240809297507    3.23136615601438
F          -9.21912567139329  -13.34490576827374    3.18567617523160
F          -9.66359610735607  -14.96244308331101    4.51790212033907
F          -8.30457546429924  -15.26075486384929    2.87908287328789
C         -10.24420965622351  -15.07755366998653    0.87732240176756
C         -11.32295390808283  -15.74288697144826    0.02305795761197
F         -11.67937265898311  -16.94308483394738    0.50369503287386
F         -12.44894392375917  -15.03015231320964   -0.09353027707354
F         -10.87727021958829  -15.94743383970873   -1.22497777126670
C          -9.99013124097860  -13.65059422309301    0.37813651328860
C         -10.36639943645602  -10.76810114635694   -0.58964785887233
C         -10.48453652284401   -9.46494395181385   -0.94241267803256
C          -9.68629945847633   -8.77640573302859   -1.91591159163258
C          -8.88045365797953   -9.43214274006241   -2.82322096123671
C          -8.05103866533500   -8.69617143010492   -3.68832926127815
C          -7.12454209665045   -9.12270441622677   -4.63139843336199
C          -6.84530547192348  -10.53859990125056   -5.00597849702188
C          -6.77097618387735  -10.75344236591758   -6.52902736116129
N          -7.28870855341433  -12.06984287712218   -6.85052139959330
C          -5.57156318435138  -11.04445014718523   -4.30054605207912
N          -5.82695655951036  -11.16735713638852   -2.87704984790192
C          -6.46683206081429   -7.93636728888026   -5.13004675132609
C          -5.43245986219238   -7.77007444081169   -5.97473358485893
C          -4.86452131982650   -6.42676296769614   -6.27006096479874
C          -5.60204235523179   -5.28218839522907   -5.63691524740041
C          -6.64003388502215   -5.46319931095523   -4.80202286296809
C          -7.08903991057244   -6.76759231694169   -4.48461166901405
C          -8.04516811038550   -7.24071745745789   -3.61198561074976
C          -8.92979317426185   -6.59205485931203   -2.71650457880940
C          -9.72225917059300   -7.33826162981975   -1.90977541775601
C          -4.73474427871053   -6.14703281504197   -7.74470352763877
C          -5.49296317835844   -6.72863125177208   -8.67831014396822
C          -5.44492482694863   -6.49351628231022  -10.09405969577869
S          -6.11513451688997   -7.71256428297853  -11.12491952340596
C          -5.69294928152326   -6.82263538061033  -12.55487028401573
C          -5.08248702379438   -5.61996703281689  -12.21785497071536
C          -4.94730222983758   -5.43200146111548  -10.83504646812818
C          -4.34547165160946   -4.19227679931152  -10.24660611352514
C          -4.30614837723882   -3.03412405492723  -11.25079693039903
C          -5.68094529781179   -2.36867876917157  -11.33232827647053
F          -6.68763096560380   -3.21689190667275  -11.55553405105823
F          -5.96307014525079   -1.74154807803460  -10.18045036643103
F          -5.73326892356981   -1.44172243665970  -12.29867828835126
C          -3.82936202983645   -3.47753248876760  -12.64118800777872
C          -2.37334410352839   -3.94072062198508  -12.58945126120875
F          -1.58787592384355   -3.07687269276073  -11.92968133865272
F          -2.19977762964012   -5.13161601034706  -11.99997751700217
F          -1.86792779615158   -4.05847275354988  -13.82379718094390
C          -4.70258010032654   -4.58786726255695  -13.23430474749067
C          -5.98889012736306   -7.29063122618204  -13.85305265028592
C          -6.71407257040212   -8.40909428306550  -14.13119999239816
C          -6.99756340314106   -8.91062159685829  -15.41852421473648
C          -6.92051560651373   -8.33410472751946  -16.65920096360697
C          -6.87342986679810   -9.24130058726117  -17.83665415545928
O          -7.09601843231554  -10.42882071324386  -17.85161973037474
C          -6.44650858070893   -8.39013909304302  -18.97202243310926
C          -6.14052027212281   -8.76435053497870  -20.26255067577303
C          -5.71871287635503   -7.77411713974660  -21.15231918390566
C          -5.61056863330679   -6.43780581712657  -20.72277881520908
C          -5.93596469403854   -6.06850318109626  -19.41580691774199
C          -6.36131934545683   -7.05250265329247  -18.54034419421781
C          -6.79409381385026   -6.97970683918493  -17.14140825654477
C          -7.21853069659199   -5.82779608598175  -16.52683884835210
C          -7.86706048711860   -5.79633999872013  -15.27712993646622
N          -8.40115014854824   -5.71896652989079  -14.26417090819525
C          -7.09818279011536   -4.53934993859669  -17.08596605392911
N          -6.98742690104403   -3.46330810714404  -17.46965715928816
C          -5.15871320803861   -5.44847383027972  -21.63113248837243
N          -4.78759075410711   -4.64308337267291  -22.35510710865204
C          -5.39112807077862   -8.11506855402265  -22.48663587835753
N          -5.12913361199315   -8.40959532803205  -23.56173742459270
H         -17.68555614048884  -10.33396615961435    6.60520234623458
H         -15.99431132847251   -7.09180523127690    3.21110418051404
H         -13.69295290465525  -12.91072171461512    3.81199789327674
H         -12.76446646078947  -14.83374516077360    2.38129358525502
H         -11.93014461254827  -14.14009524368242    3.76214643938369
H         -10.81099684661366  -16.16010927743881    2.66067340949859
H          -9.34532771662404  -15.68567047557324    0.72046986664237
H         -10.01750061691974  -13.64680196863886   -0.71446771058956
H          -8.98631727268221  -13.33715424675950    0.67844678670058
H          -9.62537151390175  -11.39253478629110   -1.06749586276199
H         -11.20825212408023   -8.86180613989665   -0.40748155277276
H          -8.86373561341305  -10.50938334160895   -2.87119218392479
H          -7.67367733744430  -11.15556890805252   -4.64722053610466
H          -5.73680569283148  -10.59680747005650   -6.88122559841959
H          -7.41299916155714  -10.02164231650131   -7.02756438081789
H          -6.71018307330543  -12.79405608462330   -6.43919688513667
H          -7.30947086009408  -12.21609852240514   -7.85301384662118
H          -4.73277700504379  -10.36790495377019   -4.54171312043786
H          -5.32189388928961  -12.04184487536894   -4.67392830618475
H          -6.04752590171405  -10.25856659189259   -2.48221350216655
H          -5.01068999685669  -11.52831762388523   -2.39624997089823
H          -4.93875175652862   -8.60429422092388   -6.45203102973919
H          -3.84012736535747   -6.42594323572647   -5.85859733102584
H          -5.24585515109022   -4.29406281520871   -5.88400762611828
H          -7.13691502438858   -4.61576506998120   -4.35307364900519
H          -8.95686753461913   -5.51316926535309   -2.68155687995885
H         -10.39558070819755   -6.85878510553496   -1.21462595229951
H          -3.99028027763116   -5.41151010766314   -8.00101045675386
H          -6.20134454256238   -7.48975800313160   -8.37557231421178
H          -3.32336760230288   -4.40272095808152   -9.91960740095391
H          -4.92114919154256   -3.88565219745256   -9.36931626220590
H          -3.63562983951338   -2.25148384163277  -10.87577790104802
H          -3.83105167582355   -2.61308115316087  -13.31560699906117
H          -4.16709561524893   -5.05026394484538  -14.06787889793499
H          -5.61805320271206   -4.14659216784406  -13.64044480129830
H          -5.56000660082946   -6.72157610543197  -14.66625987037455
H          -7.05923240796330   -9.00860386558838  -13.29864335402235
H          -7.26304092550839   -9.96380307231145  -15.45782300338269
H          -6.22309002225799   -9.79395908729182  -20.57574797382174
H          -5.83769972920714   -5.03549395581739  -19.12160018374009
