112
 SCF done       -203.263069639070          0.000446751884
C          -6.13526852102614  -11.00864812210458   -8.75939975556734
C          -6.61687551423742  -11.66057737210899   -9.88128144354772
C          -7.24410918696972  -12.89771796986991   -9.71457438083315
C          -7.75169004257397  -13.57933767814201  -10.84760933577190
N          -8.16058416395767  -14.12565613820536  -11.76712400244878
C          -7.38337884029069  -13.47937009358050   -8.44048575555319
C          -8.03383457291670  -14.72756256118512   -8.29762873833766
N          -8.56004407987112  -15.73507188744376   -8.15511770719836
C          -6.88259677977957  -12.82386690636205   -7.31371428448889
C          -6.27315678591308  -11.60152888713767   -7.49071386013138
C          -5.67160815932290  -10.71918135316490   -6.46214793539604
O          -5.50975945161995  -10.99562191263255   -5.29020995682405
C          -5.20861309972662   -9.52607754721440   -7.19823386781042
C          -5.47347634132821   -9.71204968692224   -8.60169812582647
C          -5.24115258284449   -8.81042219442142   -9.60983660414263
C          -5.54721608683510   -9.04224330630301  -10.96609390268594
N          -5.76656905072243   -9.18063655595321  -12.08451074651268
C          -4.68183998055819   -7.52891926598743   -9.42652981527568
N          -4.24678228620410   -6.46895315886749   -9.34938194685398
C          -4.51882928751353   -8.48516551833565   -6.61824614739127
C          -4.47855098288039   -8.21319820707236   -5.24491362595512
S          -3.00628501018575   -7.54221676687354   -4.59796525071746
C          -3.52074571688670   -7.74375568299097   -2.97389902120168
C          -4.85240180729401   -8.19462715466227   -2.91758849066960
C          -5.41084929693265   -8.42969496346717   -4.21297319379430
C          -6.79291999389214   -8.71154140323109   -4.31472208344587
S          -7.62425033765709   -8.68769120224309   -5.87262665632187
C          -7.52495818499965   -8.89162293672919   -3.16229929953022
C          -6.95402466038196   -8.71237319500109   -1.89866296228568
C          -5.64741214372951   -8.32703681599292   -1.76558152787207
C          -2.62663228999267   -7.45738339704543   -1.88458464111555
C          -2.64632973707263   -8.20784689236477   -0.72873365382266
C          -1.78745793392104   -7.87718442509751    0.33635696538612
C          -1.64033482051503   -8.44571847211187    1.59736740441718
C          -2.39993231674221   -9.61858552181653    2.11408345961617
C          -1.55937419910567  -10.91547182543068    2.09164177381125
N          -0.33421330164765  -10.77110806373960    2.86160223978588
C          -2.98278500105572   -9.40915285465988    3.52254886772147
N          -4.08770857525323  -10.33260259390359    3.71806715535869
C          -0.63622003277244   -7.66932188835167    2.28462889508155
C          -0.11755284275817   -7.77123714895373    3.52389629265261
C           0.90882385634719   -6.81417026973975    4.02243861659023
C           1.31264428616931   -5.75440978736155    3.04379415963409
C           0.80354518684428   -5.68308574984594    1.79888862463898
C          -0.17974898791320   -6.60567796505968    1.37443072414700
C          -0.87907596303175   -6.74851680837513    0.19256035931436
C          -0.84155636653498   -6.03492846233083   -1.02774555712407
C          -1.68267149060114   -6.38658386227313   -2.03119420782245
C           2.16332894642025   -7.55073080721741    4.39987869037361
C           2.73788698027848   -7.46511846592373    5.60740297692581
C           4.00212236710177   -8.03397274219311    5.94839932676964
S           5.07661088224675   -8.52907530393079    4.69311162596042
C           6.39299749688632   -8.81049802823196    5.79151505266971
C           5.98139201634844   -8.54956490995197    7.11822279677093
C           4.61296284173260   -8.14245616974110    7.20944178530735
C           4.07188636014211   -7.91818083316735    8.49973759846903
S           2.35028985046120   -7.61376420652272    8.80679914195101
C           4.89686666336718   -7.95218564476576    9.59820025225712
C           6.25439139252047   -8.26858505957416    9.47829885241219
C           6.79162592047084   -8.59680294482429    8.26122558892749
C           7.63014278534437   -9.32599720624732    5.40003761196965
C           8.16378284593049   -9.48873558864359    4.14381002770761
C           9.20914231741283  -10.51436341702020    3.93846626279634
O           9.82603108461311  -11.11717775245468    4.78746118520979
C           9.29556994836024  -10.68781137472189    2.46658541905184
C          10.03815799544571  -11.59844009131707    1.74742740492206
C           9.92042500605395  -11.59128897200398    0.35538065862232
C           9.06191702436137  -10.67304123942712   -0.27772095504822
C           8.32494254117752   -9.74373657207410    0.46080357919406
C           8.44772236115175   -9.75454082584323    1.83811269006396
C           7.85069736317729   -8.90142384334097    2.86868226762266
C           7.35421351537780   -7.63933606035776    2.64753881733313
C           7.12977308481307   -6.71492770972829    3.68719177449623
N           6.98886810821583   -5.92380192562065    4.50748699157508
C           7.10636221944019   -7.10037078251235    1.37117450808966
N           6.85272724160193   -6.63132206126881    0.35432406472321
C           8.93822402874935  -10.69299469592593   -1.68878884836753
N           8.82493163957226  -10.70585131905347   -2.82804201586375
C          10.66085735297037  -12.51558722543003   -0.41966942290391
N          11.26716755382613  -13.27247992420775   -1.02880235529607
H          -6.52512532857471  -11.24809994462143  -10.87337073677261
H          -6.97562052635958  -13.25912069108154   -6.33023078924091
H          -3.89124790994286   -7.86403116546419   -7.24488268562826
H          -8.85042171263218   -8.76484981832444   -5.34892549590587
H          -8.57590959862589   -9.13391482067414   -3.22912079979946
H          -7.57734137960232   -8.83488581760095   -1.02629816644417
H          -5.23810455240150   -8.08582233881252   -0.79806563796854
H          -3.28405956022391   -9.07562065426063   -0.65723186575045
H          -3.24594880428442   -9.79387708211675    1.44082223583579
H          -1.37573969101771  -11.19302351229200    1.04177289230958
H          -2.16750126048032  -11.69347492221960    2.55719573797890
H           0.34761245669935  -10.23584221402104    2.33384736435313
H           0.06662331073821  -11.68246740214768    3.05085598260922
H          -3.26765180436200   -8.35011597156959    3.64528853744776
H          -2.22253977870296   -9.65410224878520    4.26481734220336
H          -4.87112550365349  -10.08478557530806    3.12242823662423
H          -4.40905952922638  -10.30765660838553    4.67884885357767
H          -0.39785403315041   -8.56915674769245    4.19350172972104
H           0.51124741505844   -6.33382619771368    4.92839550381935
H           2.06248289405323   -5.05848177007883    3.38639512793034
H           1.12596130886998   -4.90954606985467    1.11751505966380
H          -0.14695996893938   -5.21745048328844   -1.14787103453103
H          -1.67697568073795   -5.84839424817977   -2.96768484463312
H           2.61934452340599   -8.13081466767152    3.60929599266750
H           2.25811305636351   -6.88034109237057    6.38090187566198
H           1.88690679213600   -8.48728866111825    7.91024721478602
H           4.47675753492909   -7.75562027229463   10.57257564654237
H           6.86793757103654   -8.28454950866783   10.36531375583488
H           7.82857296048826   -8.87804720982979    8.17583177221209
H           8.22978355892905   -9.76214248893876    6.19310704934220
H          10.69158177328821  -12.29857748309073    2.24534484793388
H           7.67512720983510   -9.05362617579429   -0.05423111067712
