150
 SCF done       -273.139038315797          0.000762634212
C          -2.66542069566479   -5.68439829459342    3.61090275479613
C          -1.61579566169444   -5.74454746315474    4.51389835463346
C          -1.28196514738945   -6.98212289719646    5.05793708576444
C          -0.24243020400113   -7.07421532745402    6.01138378234985
N           0.57581564864180   -7.14607394812516    6.81104736800071
C          -1.98708412886829   -8.15133401696812    4.69699571012669
C          -1.57244164164068   -9.38283082509865    5.24578829469525
N          -1.21554331040728  -10.37687045925633    5.69210117305036
C          -3.06478265861982   -8.08106072374598    3.81388051630999
C          -3.39577832630235   -6.84902944313059    3.28907937029500
C          -4.47066827874808   -6.51275338776893    2.32257852185304
O          -5.32805031147921   -7.24551200216882    1.89024801418750
C          -4.19072695383728   -5.10669491376409    1.93129856200293
C          -3.21914603348804   -4.56113933918910    2.86924482918417
C          -3.02577046927157   -3.23671224226934    3.15733471362959
C          -2.09885432825095   -2.77104945006981    4.11137376133225
N          -1.33913946336541   -2.34664337787094    4.85963044513117
C          -3.74000882694024   -2.18407052351675    2.54979731956315
N          -4.31919211237981   -1.28471202295637    2.13383047449714
C          -4.63244226643408   -4.59338305615521    0.75609213478395
C          -4.00742927899752   -3.50115919663785    0.05056025291957
C          -4.77965365948350   -2.56167186600061   -0.62263614806488
C          -4.22478244104020   -1.43363331592953   -1.20857911635075
O          -5.11288670751270   -0.58948744700601   -1.82874950534853
C          -4.75572747412877   -0.02955807895464   -3.01753765048732
C          -5.45513941642183    0.96859086405529   -3.54858940539937
O          -5.12249654045290    1.43567265666156   -4.80000956837832
C          -4.71456582442528    2.72651107036949   -4.90241321005942
C          -4.72676764591317    3.65744008921607   -3.95531663296082
O          -4.17983357387436    4.90595270501148   -4.21814254701074
C          -2.94161556386363    5.12188058293308   -3.70950903987871
C          -2.27266329043343    4.38533143783609   -2.82249032904983
O          -2.84552019910636    3.32009887170131   -2.15812190976536
C          -2.21639400721194    2.11672994803151   -2.18537576528664
C          -2.74835966755206    1.09211867869360   -1.51924124824115
O          -2.14374895507268   -0.13871096485941   -1.53972977265642
C          -2.83401586548613   -1.22690906957625   -1.10431401730976
C          -2.05061253270084   -2.23518771411750   -0.54339261851936
C          -2.59576133940976   -3.37462330281601    0.02090929322585
C          -1.77002132947814   -4.46041790781368    0.52288745482152
C          -0.60627698203460   -4.34737057800086    1.18184385599237
C           0.09398122915863   -5.45000143296779    1.80461940942472
C           1.07890263542972   -5.18345734158124    2.72780798682913
C           1.67741515973538   -6.23073560566180    3.45929953693129
C           2.64658550601422   -6.22214872128718    4.45139751587308
C           3.36892768078586   -5.02746599006557    4.97266135542444
C           3.17091966772717   -4.84370755462058    6.49070978027383
N           3.26346053093119   -3.43374604589266    6.81021608887750
C           4.85928856839791   -5.09035949833439    4.59222992452111
N           5.53103796662406   -3.84836987537673    4.94276400208721
C           2.81163635185964   -7.59220343504894    4.88335609582019
C           3.57544685787235   -8.14844594828457    5.84315443507899
C           3.49169323730402   -9.60086094263845    6.16478711432195
C           2.61883288449296  -10.39533492556087    5.25324252003007
C           1.87458481979183   -9.83328520180273    4.28455495672320
C           1.91518969037282   -8.43337577465594    4.08118054665062
C           1.23043373851939   -7.59659483402268    3.22271682981110
C           0.25589223060195   -7.84899400142558    2.23093889471150
C          -0.28429050486965   -6.81063856836658    1.54616026189969
C           3.01171275576376   -9.66880566146364    7.60431595908344
C           1.72762184673220   -9.78510419125615    7.93139092221754
C           1.22775911729940   -9.83442017982295    9.29868116708618
C           1.87920761727716   -9.10096881274763   10.28612974270178
C           1.46149320927702   -9.10516423105532   11.60647570443409
O           2.01612214589141   -8.35610910069833   12.59817028960307
C           3.36755332965735   -8.15160192084019   12.65787331863878
C           3.89064646012232   -7.89193879266978   13.85142213312710
O           5.22782343029584   -7.72576989354964   14.10074568894245
C           5.68172577987685   -8.62576089921651   15.04309984454956
C           5.16204782474568   -9.84927759462396   15.09034690758261
O           5.48605643492726  -10.82500046356875   15.98286048155628
C           4.60969598418611  -11.86541866361237   16.06337117129153
C           3.30300959480706  -11.88396163473632   15.78933874815991
O           2.55689185344958  -10.76654064422481   15.48750598846609
C           1.69854500324212  -10.83437414928404   14.42474614746652
C           0.71319052570391   -9.94935376910197   14.30183816135771
O          -0.15766088690024   -9.91117135138144   13.24078724685134
C           0.34741707585393   -9.89774223409210   11.97038702811645
C          -0.30684342069234  -10.61980951022733   10.99618502695864
C           0.10036212858616  -10.61441796115873    9.65489359370152
C          -0.58595029242441  -11.40837855797796    8.67815367386673
C          -1.47695647199902  -12.40361641895910    8.92584751281038
C          -2.08742073572068  -13.11297088921609    7.87091834737199
C          -2.85641585453474  -14.24057592930244    7.96522051151563
C          -3.74781735588886  -14.62353455482660    6.84670333005373
O          -3.75424672566387  -14.17800729778309    5.72260864493169
C          -4.67285174276325  -15.63535583374214    7.41673596444385
C          -5.76147935805415  -16.23690985461159    6.82339624156092
C          -6.51155803497755  -17.13800622594854    7.58190402628745
C          -6.15418718950774  -17.40674567818239    8.91681967706700
C          -5.04266993814360  -16.79900004051444    9.50473032857533
C          -4.29744591502030  -15.91380608627266    8.74556433551755
C          -3.08340906528481  -15.15470818114236    9.05933943709937
C          -2.22802955113370  -15.44632981312490   10.09102026265592
C          -0.92551584706698  -14.92159779385841   10.23137236812817
N           0.15984151459447  -14.58011878579239   10.38352817012844
C          -2.50034809880383  -16.40399839467522   11.09062373482599
N          -2.67710778216652  -17.15821146523896   11.93771056113615
C          -6.93746052089136  -18.30807810383266    9.67914261087183
N          -7.56683500457669  -19.03235727689543   10.30377625532153
C          -7.63724227319726  -17.77779537271033    7.01037153194394
N          -8.54517582319376  -18.28550851232033    6.53108862055924
H          -1.04769569302825   -4.87236698449817    4.79431324661332
H          -3.62236004825579   -8.96602760037459    3.54642141434976
H          -5.46852884518542   -5.09374913080642    0.28088226801878
H          -5.85257323960336   -2.66816426603213   -0.66139102034285
H          -3.91926664316354   -0.46953178167131   -3.54780091156994
H          -6.29698092839772    1.42744551668055   -3.04879142490333
H          -4.34002006604896    2.93587223418737   -5.89483625244141
H          -5.09512135809014    3.50284342476235   -2.95182061129955
H          -2.50184187738775    6.02054248938104   -4.11486535029219
H          -1.25428145602549    4.63277317426302   -2.55494487490903
H          -1.31517142689209    2.02278009105265   -2.77648995471800
H          -3.62860555542910    1.21252434715588   -0.90491147237504
H          -0.98072498322915   -2.09581639759461   -0.55764405315615
H          -2.19676478447573   -5.44263956366811    0.37089399925626
H          -0.19938054153892   -3.36272566143247    1.37691771905717
H           1.36921947080187   -4.16065091310169    2.92259030536182
H           2.94406497951745   -4.13447078863744    4.50349308498938
H           3.90656086625783   -5.45964566864322    7.03229095853983
H           2.17230792456121   -5.19579016949099    6.76710836746828
H           4.20013530526069   -3.10717013252628    6.59232308519240
H           3.08295108172796   -3.27530166922136    7.79472247715557
H           4.93091073323929   -5.33230240646371    3.51710273512885
H           5.34757602273479   -5.89841823944810    5.14364141943413
H           5.14402885783963   -3.08255778515890    4.39965909933150
H           6.52031220609721   -3.91071703729119    4.72681424888709
H           4.23529567005437   -7.55917461172525    6.46228098252837
H           4.50565985086916  -10.02520404158551    6.14125353742980
H           2.59051828200664  -11.45859516098230    5.43574856550112
H           1.23836284860868  -10.43803640033440    3.65481757522360
H          -0.04660974071651   -8.86627091918610    2.02655183826941
H          -1.01351737590179   -7.01040002685542    0.77637599641521
H           3.78325696049046   -9.60244183174094    8.35791309141936
H           1.00057948286219   -9.86102230351042    7.13658960383931
H           2.69761866868646   -8.46112568989838    9.99590372980998
H           3.95112773495767   -8.22815524374285   11.75262912075885
H           3.24627371477310   -7.87437906466749   14.72446649033553
H           6.45893011329540   -8.24410436427556   15.68335356442063
H           4.43476508957959  -10.12387747076957   14.33896849899657
H           5.09097461303354  -12.76089586894855   16.42666819264358
H           2.76004635687946  -12.81818808625567   15.85599001606642
H           1.89615756248472  -11.59151385276652   13.67258681058848
H           0.50036715775239   -9.22009891915313   15.06954861613335
H          -1.16372777243225  -11.19525416190435   11.30484511049892
H          -0.34594731044136  -11.22727301020735    7.64105803517574
H          -1.73476444707970  -12.67535944701847    9.93819428776158
H          -2.00921359506350  -12.68276887460289    6.87775856684052
H          -6.02747592570619  -16.01610355245374    5.80081037975455
H          -4.80100447207196  -17.02481750905151   10.53134465040391
