108
 SCF done       -196.300257970806          0.000955396778
C           4.39702726913341   -7.87276458437059   -1.13383805496847
C           5.28496999034022   -8.74570528334207   -1.73876665000969
C           6.32501480036823   -9.26782503615341   -0.96866340566241
C           7.24190895374260  -10.17529486520054   -1.55583014432484
N           7.97664804120661  -10.91721149531462   -2.02495989288209
C           6.48007964845853   -8.91223469239611    0.38640706284936
C           7.55516667189561   -9.44547998168136    1.13751806581970
N           8.41596129443491   -9.86852976381616    1.76306246303900
C           5.57279233495034   -8.04315996794289    0.99416020309865
C           4.53908602337819   -7.54352937949293    0.22962608644364
C           3.43114176374817   -6.65215932685798    0.64231737571361
O           3.28025078604505   -6.12060582254206    1.71796043648713
C           2.51838029589190   -6.60829361593809   -0.53063560311332
C           3.24514513509321   -7.15447938987859   -1.66981988279678
C           3.06547556590580   -6.82780853984299   -2.98328508521648
C           3.90573779291546   -7.28172423795394   -4.02321968843974
N           4.57693548382696   -7.61451294519154   -4.89089102118344
C           2.08229078024418   -5.91775356557804   -3.42713203367398
N           1.33626026474200   -5.13791566004092   -3.81629592353759
C           1.22071378697568   -6.23928382677160   -0.39750175809568
C           0.17810742823598   -6.51588455026186   -1.34719015405081
C           0.12483010923231   -7.66629146167780   -2.12116604565476
C           0.93577611111245   -8.89383398383218   -2.02517529433261
O           1.41369746552292   -9.42028999070794   -3.00314464989107
C           1.05247112813732   -9.49456247816771   -0.64409366959158
S          -1.12620387318032   -7.59241086836807   -3.30240145481074
C          -1.59775227223910   -6.03984028176023   -2.75246470375374
C          -0.85260655675746   -5.58639866117995   -1.70564782756118
C          -1.04618682885991   -4.28557632238716   -1.06160851156009
C          -1.20192776792491   -4.21167551954899    0.29465473926671
C          -1.32151657007776   -2.94780460520668    0.91178802612698
C          -1.39848462024629   -2.61038531294588    2.25506177133023
C          -1.32476808925752   -3.61573207765792    3.35291437994581
C           0.15225850530660   -3.94427485129079    3.68654627852079
N           0.83451600345787   -4.46046145210335    2.51381879585993
C          -2.07793093739761   -3.25062411110436    4.63705958742851
N          -2.26528627281872   -4.44837511971633    5.43896538159923
C          -1.42951213392864   -1.16528341544073    2.31461819425644
C          -1.46667140521733   -0.29937377129574    3.34418737841207
C          -1.46185500509825    1.17504591961190    3.13570704974559
C          -1.47582487261931    1.60865878283041    1.70223854210915
C          -1.42179459776196    0.73369609447097    0.68009291892582
C          -1.39243354954843   -0.65597316160090    0.92981175558232
C          -1.31541162188667   -1.75140037765662    0.08847868791267
C          -1.20334207200985   -1.87277437867789   -1.31550694890391
C          -1.06734547161005   -3.10741091576245   -1.86895674209700
C          -0.21632669809913    1.76937443842750    3.75073160385210
C          -0.20955280779034    2.85607222223457    4.51225026323629
C           1.01394055331221    3.50010490896676    4.98970824044479
C           1.35255297555745    3.70801933415181    6.30597304324524
C           0.73625117011205    3.32039176989893    7.57573133713737
O           1.30010913477601    3.57708891275913    8.61719697052047
C          -0.58863305697576    2.60758464225163    7.52214876729356
S           2.87404588668058    4.54063091112516    6.46559513857436
C           3.01961835000521    4.65535812536980    4.78269139473006
C           1.98023527209827    4.06319529572312    4.09393192481587
C           1.88285385652073    3.98264169667678    2.66707352785131
C           2.42137125276194    4.79652732340138    1.72713536855842
C           2.55624649777682    4.29901133095136    0.32965146364260
O           2.02614978693981    3.32511249094378   -0.14992351393091
C           3.52106241020321    5.22001384538915   -0.31141525858618
C           4.09266965069457    5.13373635015918   -1.56302768943805
C           5.00868952133362    6.11762435241081   -1.93933717286942
C           5.33013975465621    7.16351363521504   -1.05031661183222
C           4.73731386424335    7.25010629068172    0.20930574254251
C           3.82654206283113    6.27310635085184    0.57746386606261
C           3.03608897738634    6.10862220038835    1.79251716809513
C           2.71712285771027    7.10514597355181    2.67800905827204
C           1.71414034643844    6.96189514624113    3.65865876674702
N           0.86214622976624    6.89928597588515    4.42504781997589
C           3.27543630041127    8.39886361286902    2.63902825150299
N           3.72164228980297    9.45583806809047    2.65010253330690
C           6.27782552810492    8.14129636880288   -1.44257702267698
N           7.04598886210591    8.93290357874402   -1.74870531523527
C           5.62065138133014    6.06237427466079   -3.21409638631077
N           6.10653727944521    5.99885101236896   -4.24924330866637
H           5.18235474986985   -9.04190774260587   -2.77089480466758
H           5.67562285302206   -7.77243393570722    2.03406581782477
H           0.94874189731628   -5.72698923580543    0.52091690680228
H           0.95624968943910   -8.75636552982746    0.14540713365159
H           1.98760468497760  -10.04221226536381   -0.55138037708062
H           0.23787487297409  -10.21279485411089   -0.54471250835938
H          -2.42776971642893   -5.54468820909910   -3.21654018483872
H          -1.22300650700136   -5.10516597064095    0.89835178001282
H          -1.76372532278857   -4.54429528840259    2.97301378847106
H           0.14437463070739   -4.71567261375900    4.45837870601181
H           0.62639859363147   -3.04093110453127    4.10297693940174
H           1.68801595020104   -4.94630623429089    2.76831010223974
H           1.08875375184555   -3.69774897211846    1.89401219663387
H          -3.02471442837746   -2.75001049078991    4.36933676087116
H          -1.48112821436852   -2.56104070922277    5.23963898517427
H          -2.87310367539206   -5.10456520693376    4.95999693880367
H          -2.69514440309617   -4.22057813524546    6.32819248914402
H          -1.47010846847812   -0.62579087914633    4.37350168103268
H          -2.33293054673479    1.60404091754952    3.65075904545638
H          -1.49712970481694    2.67409652600508    1.53228553773450
H          -1.40791751489099    1.08332443086819   -0.34145744165228
H          -1.20994977161047   -0.98624113071519   -1.93154798436530
H          -0.94650301726695   -3.22638882323809   -2.93463352350796
H           0.70398691765344    1.26441661858541    3.48994747859257
H          -1.13787679309520    3.34072029685666    4.78652469657095
H          -1.35569967788431    3.30102465504331    7.18303665440097
H          -0.84423488347375    2.25905930695731    8.51951026451913
H          -0.54547682081945    1.76957195421075    6.83127046422068
H           3.89254383463571    5.11008537888184    4.35488070340143
H           1.36322537127896    3.11679406960835    2.27150638533248
H           3.84042121868651    4.32577758627200   -2.23292878846086
H           5.00684204311723    8.06111400228074    0.86775415201571
