150
 SCF done       -236.495851094626          0.000470398567
C          -0.10385379617351   -2.08716519154745    1.42208156036512
C           0.64255837800468   -1.52655342850772    2.62959533117998
C           1.83222674247518   -2.10951417443699    3.04989522165175
C           2.53141582373813   -1.57319045049696    4.11530212078400
C           2.05206107015001   -0.45214843088987    4.77199693943098
C           0.86464644571671    0.12557119917495    4.36064058185089
C           0.16284763391835   -0.40546245344119    3.29192427950479
C          -0.41919994632019   -3.57126945166058    1.52962069360395
C          -0.47388816245445   -4.21074355822739    2.75949318387547
C          -0.81513681029387   -5.55091796163667    2.82793982040551
C          -1.11731486657488   -6.25555142420311    1.67563934177477
C          -1.09120048475569   -5.61270891830110    0.44918474877590
C          -0.75027309432097   -4.27461781805352    0.37561311779297
C           0.66815862324394   -1.68055354815914    0.18197549060433
C          -0.10878618822779   -0.79748255300395   -0.51586509862270
C          -1.36883940558989   -0.65755468410381    0.18069717556748
C          -2.44967377249193    0.10999888385425   -0.15369801909114
C          -2.49214485741967    0.92507494297756   -1.29967427011002
N          -2.57959869188745    1.61150647410102   -2.21440381998655
C          -3.59414036536941    0.12969857755497    0.66986114646980
N          -4.52001495685203    0.15451390276194    1.34610306730909
O          -1.36833140993588   -1.42286508885866    1.28092155188448
C           0.20184257181385   -0.18530479862516   -1.74145169467250
N           0.47823875568625    0.28003931290381   -2.75220608001418
C           2.00937379443308   -2.10534999075751   -0.13438436930322
C           2.44483685809782   -3.40977675207168    0.15117947913473
C           3.72728761640067   -3.77472640765285   -0.16730487258042
C           4.61433998154342   -2.85897662041803   -0.76002234811319
C           4.19302167527990   -1.56709796927242   -1.04366704973843
C           2.89758599957859   -1.20335220675774   -0.73736180755115
C           5.88252417720716   -3.52185988902119   -0.96798480795849
C           5.77489013251869   -4.84915427112556   -0.51529898570386
C           4.39493260346160   -5.11242431932320    0.04054768106277
C           3.67004211618159   -6.22775321940435   -0.73445670470903
C           3.56802368826198   -5.93868452513930   -2.22713749340303
C           4.45033949359219   -5.47494512761303    1.53703719237347
C           5.18167709422078   -4.43070995780319    2.37271862797153
C           6.84184656786902   -5.70791474542449   -0.59965387149961
C           8.05693452926357   -5.25300134257780   -1.13393161135118
C           8.15090205235918   -3.92631235031475   -1.57666557027687
C           7.07718944152738   -3.06231284292602   -1.50266674107539
C           9.18532339687578   -6.14984658792175   -1.22016919577129
N          10.48404355508168   -5.68969704055384   -1.27296330009879
C          11.32010625468525   -6.76027171777035   -1.33920763529101
C          12.65904211627567   -7.14596769498406   -1.39030852370372
C          12.65762380474125   -8.54040113784459   -1.46037238255829
N          11.35522970152653   -8.99731316320855   -1.45118272722539
C          10.52355644979557   -7.92635088657023   -1.36381216413904
C           9.18354030031619   -7.54047561099471   -1.27723573528374
C          13.79811840770479   -9.38985483980213   -1.52162760274196
C          13.78961320464210  -10.72060664129092   -1.74575234362240
C          14.95242377715889  -11.57491133793765   -1.78284616476568
C          14.84790822509100  -12.83714908145468   -2.38943630223907
C          15.94338102770956  -13.66231179659825   -2.44788889497440
C          17.16384718663710  -13.26518313645479   -1.87414049644342
C          17.27772333093839  -12.02712746790988   -1.25427773232568
C          16.17957838738808  -11.19566851775366   -1.21840702105842
C          18.13198125111387  -14.31227076580018   -2.08700350778354
C          17.51750890532486  -15.35678078115514   -2.80505070928672
C          16.05704698490169  -15.05034076843839   -3.04251495883128
C          15.69982610667385  -15.07177786681170   -4.53637180489598
C          16.51132011864981  -14.06370176602123   -5.34247528542710
C          15.13317228713771  -15.98109727817029   -2.22157866516772
C          15.19725270928349  -17.46288077027832   -2.56703128850460
C          18.24934430546442  -16.44047646019517   -3.21632888638628
C          19.61168176759360  -16.54029588009749   -2.87180649036433
C          20.19885823072245  -15.50403786172073   -2.12413383146860
C          19.47526396939024  -14.39648585724708   -1.74217540783767
C          20.38802267013118  -17.66717854329906   -3.30624399929937
C          19.97264267551472  -18.81684738704066   -3.93329292686222
C          21.14458545184052  -19.57983979931319   -4.30356279022881
C          21.21692068919324  -20.78048670960375   -4.95676999223543
C          20.09294110832473  -21.50704697910062   -5.38763536356762
N          19.21849987195552  -22.14308133955749   -5.77129299752020
C          22.47201282838767  -21.35588030976234   -5.24299480606923
N          23.49248996298615  -21.82375441571311   -5.47781693868328
O          22.25207151138080  -18.92697368986907   -3.93636658486628
C          21.89998730827839  -17.72996626163208   -3.21206054394822
C          22.43778011927555  -17.95640217945598   -1.80576684098490
C          23.79821446906199  -18.21791426593703   -1.67558320084997
C          24.33909025638813  -18.49070448232729   -0.43336746540003
C          23.52604567052545  -18.51519108457927    0.68812555692267
C          22.16898689770064  -18.28205243769513    0.55720498059762
C          21.62061432389030  -18.01229909033785   -0.68615917381275
C          22.52473524244319  -16.54407157607343   -3.93843047849530
C          22.23811140328441  -16.38661763853749   -5.28914357305446
C          22.77130689410656  -15.32763712770128   -6.00015609591001
C          23.59167656819038  -14.41045365843138   -5.36659897132928
C          23.87782636897870  -14.56171171086998   -4.02132928831052
C          23.34962491474964  -15.62351986799284   -3.30773355942255
C          18.66565099053674  -19.26337887303582   -4.18202821166380
N          17.59396566703419  -19.63527715363656   -4.35742523906105
H           2.21258517029363   -2.98690841874716    2.55154514772653
H           3.45407262252220   -2.03601801241370    4.43239089934393
H           2.60050532578143   -0.03414801415517    5.60250269198851
H           0.47723092953985    0.99505561325980    4.86959595213407
H          -0.76852835746292    0.04791709197031    2.98859207764322
H          -0.25150980725665   -3.66392169671955    3.66297371605442
H          -0.84986115231373   -6.04230378336406    3.78859691289500
H          -1.38150386908666   -7.30071048688269    1.73281519787230
H          -1.33827385057868   -6.15115902570246   -0.45329925044963
H          -0.73044750865898   -3.77844224274977   -0.58510417218243
H           1.76273658156700   -4.12869489517977    0.57812584480736
H           4.86288083945631   -0.85285609685398   -1.49685559783145
H           2.56780519595841   -0.19588795148651   -0.93906414954985
H           2.66751803519990   -6.34907644249820   -0.31718876133657
H           4.21016183415241   -7.16454601081611   -0.58296559121377
H           3.01602007118827   -5.01845784138845   -2.40522501608859
H           3.05159420721343   -6.75220301638760   -2.73101705709356
H           4.55768960675758   -5.83441383520090   -2.66619396141984
H           4.95169239995307   -6.43869424380320    1.64558558654761
H           3.42789541827817   -5.58867432369467    1.90592855342515
H           5.16138218111560   -4.71228729294603    3.42310944855731
H           4.71540118526650   -3.45329203715943    2.26713438913191
H           6.21966762426255   -4.34768193661930    2.05861081929513
H           6.76607098365091   -6.72323656256948   -0.24277695603028
H           9.07412243437242   -3.57547675120511   -2.01458716108101
H           7.16725405490996   -2.04720346293785   -1.85915875912050
H          10.75379669613394   -4.72582294657693   -1.18513088393388
H          13.53175961666551   -6.52392252401802   -1.38765937230757
H          11.08788045686300   -9.96527117630193   -1.46714514277915
H           8.31713444155086   -8.17051459069079   -1.28908667868828
H          14.73982291995569   -8.87537271140157   -1.39322177705925
H          12.85093351333193  -11.21891560684855   -1.95489778874326
H          13.90544857843430  -13.13761501183597   -2.82537799088040
H          18.21095600790811  -11.72127421925201   -0.80504071497747
H          16.25974059028220  -10.23930873469261   -0.72522558345092
H          14.63586353991370  -14.85290894461223   -4.64661257086516
H          15.88056543495492  -16.07184299204532   -4.93145508048051
H          16.32881461541914  -13.05029166424635   -4.99107628852710
H          16.23741375236035  -14.11824784849087   -6.39345608270788
H          17.57632040059837  -14.26916820756883   -5.25414571888170
H          14.10831570645381  -15.62873237342912   -2.35920188616023
H          15.38479326132974  -15.85352422303192   -1.16484572112399
H          14.46799672555677  -18.00158695750147   -1.96597671360207
H          16.17770168077681  -17.87800615014111   -2.35284583246845
H          14.96593884420036  -17.64202651905730   -3.61279402037384
H          17.79709152627003  -17.20377427054897   -3.82537985474293
H          21.23554816425227  -15.57314172974524   -1.84034229994462
H          19.95130096630764  -13.60404758791976   -1.18484176177760
H          24.42298955472231  -18.21632775162298   -2.55607732156321
H          25.39618162639719  -18.68964813354580   -0.34285448031515
H          23.94791690365417  -18.72738545432133    1.65894118337487
H          21.52540013637551  -18.31737399006299    1.42339230739461
H          20.55663093620896  -17.84796672427747   -0.77014624465873
H          21.60012698511800  -17.09862076218387   -5.79359693674855
H          22.54351531198897  -15.22029479955941   -7.04986631555257
H          24.00789348522921  -13.58227097372140   -5.91993473061211
H          24.51946870398764  -13.85245292893284   -3.52019410725512
H          23.58927007533207  -15.73046734065212   -2.25991996870249
