81
 SCF done       -182.254027973862          0.000410489126
C          -2.81971632173400    0.94990991313196    4.34041710882497
C          -2.55065896960721    0.42030766717001    3.10919450055811
F          -2.29755027626197    1.23747352424114    2.07710243622219
C          -2.52595913680012   -0.96881122479102    2.86395399110274
F          -2.26624999099681   -1.34410392941598    1.60371638352156
C          -2.78025430762542   -1.91961256938720    3.84366487364758
C          -3.07222541131388   -1.38539304494684    5.13299571335449
C          -3.08249529052196    0.03725753163753    5.37216199381470
N          -3.36026722095093    0.33208111464774    6.64183133937315
S          -3.58110934169637   -1.03280074161355    7.45264269160037
N          -3.33934408558864   -2.06492090715985    6.24594257863677
C          -2.75361113951280   -3.33720199054736    3.59120693798336
C          -2.19241104831169   -3.99437453208466    2.52592503880257
C          -2.39681697025226   -5.40314664076076    2.68844884243249
C          -3.14095869812274   -5.53898113321084    3.94167749820034
C          -3.35166708173104   -4.33335344912591    4.48886687379310
F          -3.53708104034262   -6.71783787994975    4.43911517636624
C          -1.98523978154814   -6.42095370133578    1.86291168002892
C          -2.19853602204428   -7.82000146775364    2.01520458842530
C          -1.61660959541849   -8.49004349284266    0.95292503903181
C          -0.99435300115296   -7.49310351239980    0.07316074196424
C          -1.21880263069408   -6.28804826941072    0.61624983896825
F          -0.81235769514927   -5.11463983932605    0.12796600345690
C          -1.63206983729496   -9.88528301268704    0.76791227237986
C          -1.04731428668499  -10.52667109447085   -0.28875749074950
C          -1.04321055555970  -11.92207701842959   -0.50789162236632
C          -0.38454174062897  -12.44638075689860   -1.65645663775157
C          -0.33067914416109  -13.85406571853268   -1.95307553092783
N           0.28742752975458  -14.25737981112619   -3.07229273570104
C           0.84666042689087  -13.38110141016589   -3.86883498769275
C           0.81025277546983  -11.98532651776800   -3.55938471191025
N           0.20058938474582  -11.56342006396045   -2.47926124290923
C           1.42999871058255  -11.04391719176244   -4.41903827759718
N           1.94141784406476  -10.30981319485292   -5.13399924608554
C           1.49375973658939  -13.83596303831339   -5.04571087450874
N           2.02743187335643  -14.17200977653403   -6.00154856255147
C          -0.93772926456827  -14.83127431594814   -1.11128486185232
C          -1.60152478165366  -14.30345669563054    0.02934437560034
C          -1.65014330998474  -12.89014010168518    0.32816915136906
N          -2.31688183670313  -12.64806833977119    1.45704844081574
S          -2.82374808802396  -14.03537314105719    2.08350163416957
N          -2.23153161299626  -15.01400669420329    0.96548070535745
C          -0.90040678286017  -16.22786361788626   -1.37056997874806
C          -1.63447590875936  -17.19724155869452   -0.70344570590313
C          -1.32912696180570  -18.47632746797735   -1.24350447055993
C          -0.33698409288559  -18.22004422340791   -2.29078926402243
C          -0.08069790218280  -16.90684145892875   -2.38205577066932
F           0.21557221663267  -19.18576513078912   -3.03032546227590
C          -1.84641647652453  -19.69912208664255   -0.88197695946946
C          -1.54183249988061  -20.98024070373231   -1.42246801260652
C          -2.29277078709807  -21.93755317793379   -0.77485517005756
C          -3.12416804990081  -21.26490031689489    0.23211930003234
C          -2.85094528674742  -19.95467751050141    0.15900510399949
F          -3.39730906421380  -18.98936143308895    0.90739817189834
C          -2.25537303360902  -23.32731348324617   -1.05258661299836
C          -3.02329227459986  -24.24888767137569   -0.41947629152928
C          -3.05170054162138  -25.66464795187537   -0.64679309389564
C          -2.26927833982612  -26.39007335699397   -1.53531022424935
F          -1.35322601995999  -25.77897074383535   -2.30327129842769
C          -2.37998250708559  -27.78881316461386   -1.68502982584812
F          -1.57000147693332  -28.38053785694868   -2.57512353518071
C          -3.26504714369500  -28.55009058454728   -0.97122897907618
C          -4.08270640578870  -27.87195180222401   -0.05497940662606
C          -3.97630012343438  -26.44597001511974    0.10665736726665
N          -4.82961265853405  -25.98586900491185    1.01778356920411
S          -5.67555285913306  -27.21965552007174    1.60751489863251
N          -5.01052795763440  -28.39721356791584    0.74524719250140
H          -2.83110750158964    2.01222923122833    4.51218867678047
H          -1.66365931110185   -3.55939663043763    1.70229222011683
H          -3.85755630416452   -4.10233205429770    5.40357332145093
H          -2.73100366318762   -8.27770152940203    2.82575421634595
H          -0.46130651625107   -7.69926555050224   -0.83346414514978
H          -2.14283726841357  -10.47306653458658    1.51796060464120
H          -0.53099089366407   -9.95315560949483   -1.04517723984120
H          -2.33445799569473  -17.01556310176877    0.08618814245465
H           0.59870649007968  -16.42685244938773   -3.05481579010040
H          -0.83837001066037  -21.16380087011828   -2.21070041675713
H          -3.81543886723457  -21.74248572968477    0.89735808538258
H          -1.56231448559310  -23.62117767089126   -1.82690640689612
H          -3.71662990187699  -23.93053069550516    0.34611643544986
H          -3.33041959839236  -29.61585092586297   -1.10557491242477
