90
 SCF done       -175.954111109371          0.000770524667
C          -1.28443127649490  -12.42126841935390  -10.01587127954006
C          -0.42742676379897  -11.46207839933336  -10.48258047788085
F          -0.20314578769887  -11.36149062713480  -11.80204991447846
C           0.23574873015622  -10.55212460932229   -9.63071205112327
F           1.03480006859484   -9.63104203521786  -10.19435333720883
C           0.05288744674148  -10.55746453245990   -8.26255968516039
C          -0.79855687250012  -11.57224002893678   -7.75240188221497
C          -1.47313124682880  -12.49201790333444   -8.62747865974406
N          -2.22842239600701  -13.36075331006255   -7.94962407185840
S          -2.08449467338017  -13.05897253390575   -6.37928691385329
N          -1.06410629570601  -11.82405561055338   -6.47132487108932
C           0.66460255827371   -9.61379941728652   -7.35788352919330
C           2.01817646839710   -9.06352069317810   -7.40006602971185
N           2.33747603288626   -8.35728497173278   -6.34926166405109
C           1.24040751281450   -8.36972073479327   -5.54610724822729
C           0.14678373352166   -9.12357067132491   -6.18869687368464
C          -1.03109000220316   -9.08162083533854   -5.36244089771135
S          -2.57244930025089   -9.37859978758810   -5.86380419941097
C          -0.56952241729925   -8.52211488498723   -4.12104107161389
C           0.80624834388075   -8.02097842677489   -4.29013796885382
N           1.24542120406254   -7.43867458929664   -3.13739631675420
C           0.26484247884540   -7.56035973073848   -2.28725414745207
C          -0.90982768122902   -8.25610896663661   -2.80974390736066
C          -2.08736752554070   -8.66402270081361   -2.09792542317466
C          -2.84866554060783   -9.68301576376989   -2.64207685437098
C          -4.04359062754510  -10.07411553330085   -2.03235526483365
C          -5.00621759108873  -10.99619028021635   -2.44536691721482
C          -4.95579767850486  -11.76555020516458   -3.72149623244970
C          -4.70177310519843  -13.26256445658226   -3.46221307141286
N          -4.27299382444346  -13.91243713937791   -4.69079122362265
C          -6.19385144910934  -11.50892087844231   -4.61533456591119
N          -7.33743203070927  -12.34252345357652   -4.27287855058167
C          -6.03061747831818  -10.99074384875024   -1.43385752136345
C          -7.18581525445512  -11.68073575331009   -1.33742301162628
C          -8.09054679062633  -11.51682085170680   -0.17489830085424
C          -7.65093666977867  -10.49771569082942    0.83019665503606
C          -6.49187158233743   -9.81830617261332    0.71930632831332
C          -5.64630983614693  -10.02449454501216   -0.39443910188283
C          -4.43960909232880   -9.45961542401096   -0.77886682162902
C          -3.61470961068215   -8.46257828626025   -0.21192779383817
C          -2.48160949457070   -8.07163836122758   -0.85894716046520
C          -8.25643334023259  -12.80990831348768    0.58836660477093
C          -7.30896016256562  -13.75243903952672    0.65943458461782
C          -7.43950805718587  -14.97226088685541    1.39440848385964
C          -6.38374662923385  -15.98490781765329    1.43876472257384
N          -6.67537437868074  -17.04895101965884    2.13045836654707
C          -7.93905252506063  -16.83934373782789    2.59297023228396
C          -8.45213765134237  -15.52515643054272    2.14887852938208
C          -9.77835746574449  -15.32526872262462    2.67797548829113
S         -10.69472583650460  -13.96067635412716    2.67911526361885
C         -10.08979634405262  -16.56586227471900    3.35024201840415
C          -8.91194377363997  -17.45560876235515    3.33353431882595
N          -9.16051578605058  -18.59373787600654    4.03692024130922
C         -10.38050307989941  -18.47310473761255    4.47836226907350
C         -11.04488100702388  -17.23549514554919    4.06890682217585
C         -12.41550294196952  -16.89337023326844    4.36678131937825
C         -13.25440263767081  -16.29615617032582    3.44585934117723
F         -12.82586987903815  -16.07710542494680    2.19597770638451
C         -14.59114363382675  -15.95156372709848    3.74963869405668
F         -15.32353088847917  -15.38045652856387    2.78326917935524
C         -15.15154197591816  -16.18479652543285    4.97434081983048
C         -14.34395751543440  -16.81048387763685    5.93702231201166
C         -12.98414186469009  -17.17590622438496    5.63414316620438
N         -12.38325925867951  -17.76032540103619    6.66865592098691
S         -13.42277909230164  -17.84475482342681    7.88979942697496
N         -14.68239603813045  -17.14681467006531    7.18175030609696
H          -1.78678278790492  -13.09701326782108  -10.68672407442735
H           2.72655599014973   -9.21753609418953   -8.19445729529654
H           0.37526972204069   -7.18625583381279   -1.28412487131110
H          -2.51203333528872  -10.18619839352201   -3.53158449116767
H          -4.09534524310689  -11.40174167166122   -4.28993840840726
H          -5.59718454553564  -13.71260471936983   -3.00902500745810
H          -3.88053498771730  -13.35054172312677   -2.74514399200174
H          -5.02241149082056  -13.93168144610695   -5.37327602026881
H          -3.99147655229916  -14.86927521897260   -4.51073109966512
H          -5.88090603426612  -11.63459432685691   -5.66219767804331
H          -6.48653301505981  -10.46460659623676   -4.48474738077036
H          -7.22857797087425  -13.27811916868264   -4.64963421617681
H          -8.18460176838986  -11.95262462765304   -4.66861227229215
H          -7.49046362662555  -12.36417801904011   -2.11835244219680
H          -9.08516880765898  -11.23943469410379   -0.55329205346061
H          -8.30541975640826  -10.35546320315073    1.67612848018890
H          -6.20345367500333   -9.09815776514856    1.47131904203486
H          -3.89753202517296   -8.00515801252820    0.72478616735503
H          -1.86498582823414   -7.28979303609519   -0.44247320116614
H          -9.17873726522886  -12.92171279193423    1.14023078105580
H          -6.37342762712013  -13.62530859967828    0.12757730399914
H          -5.42619554290804  -15.89171748531014    0.95484545257981
H         -10.83537665234434  -19.24006340702729    5.07851114719022
H         -16.16976009364551  -15.91017410884387    5.19019182208456
