95
 SCF done       -186.045157176930          0.000817047749
C           0.08091921298418   -2.12583106632657    3.16201762982592
O           0.09870944923491   -3.33273278806069    3.07944930336743
C          -1.05780954512371   -1.27587174334844    3.49307612665275
C          -0.72943230875721    0.07160665244810    3.42323717143052
C          -1.82142868140300    0.91057793260727    3.71998998111738
C          -2.93601134327329    0.17661089993291    3.99989594207058
S          -2.69391726501677   -1.52856646875112    3.91340204643162
C           0.66688096207190    0.19619813799978    3.06072608277488
C           1.33966749858353    1.38571648760234    2.97030756178824
C           0.68785704297343    2.61888760308875    3.18936641147194
N           0.17812041196928    3.63254398037337    3.35896513867559
C           2.70939368089525    1.55490006585730    2.68349645959855
N           3.81489001178689    1.78202724225025    2.47192275051770
C           1.18677732505867   -1.15555231098935    2.87879771775298
C           2.43434133408214   -1.43764099249254    2.40617232677199
C           3.11222856549663   -2.67438092737812    2.26466887503349
C           4.22311458427981   -2.82422088426416    1.45999343234806
C           4.67643202616180   -4.17764442604845    1.53486127941914
C           3.77574504571275   -4.82383169861661    2.48872899887567
C           2.85056196702189   -3.95649583972134    2.92721382255649
F           3.90206906283474   -6.10412245506197    2.85898430128330
C           5.71493093341787   -4.76775347643704    0.85358391653384
C           6.15770993700460   -6.11677854183383    0.91980250306127
C           7.21731596007767   -6.29232392785840    0.05159391306094
C           7.48341754291521   -5.00804686101474   -0.61064145041061
C           6.59992497354685   -4.12379313738019   -0.12817700392869
F           6.50153728283749   -2.83720993967425   -0.47199162959341
C           7.91393491910686   -7.50063951717447   -0.14753553739991
C           8.94307890022158   -7.68432933534691   -1.02317946567228
C           9.63078513596109   -8.90398409249781   -1.18525664521845
S           9.24349307128914  -10.31027036991299   -0.23916235187366
C          10.49125850293683  -11.24710176077101   -1.01139354336686
C          11.15094971163579  -10.48866653051254   -1.98187001766580
C          10.67675963809749   -9.17957016556515   -2.07001114904834
C          11.21906253304950   -8.17130679411283   -3.03524698239721
C          12.53893215905783   -8.64904985289799   -3.65743316613309
C          12.87044804802883   -7.79933695623023   -4.78023186105610
N          13.09167763431471   -7.12160684062224   -5.67221383751143
C          12.39598952524006  -10.11656648735032   -4.11013590073759
C          13.56348420386536  -10.53098552882759   -4.85728775893733
N          14.49735268607993  -10.86369645153231   -5.42373749835952
C          12.22518449134533  -11.01705056677169   -2.87800987135093
C          10.70611824874131  -12.57931850963361   -0.59069708306760
C          11.77441693163297  -13.41711422321002   -0.83457904187964
C          11.56018072291083  -14.65090282708380   -0.15549292491843
C          10.25942196139154  -14.50927661809022    0.50486661367789
C           9.75264112492376  -13.29131483153346    0.26765642297172
F           9.69081821961613  -15.47730765334404    1.22807486217003
C          12.40119101457065  -15.73694904623992   -0.08676384012574
C          12.21472504457308  -16.95496194525170    0.62986297090748
C          13.32184930284198  -17.75651614629249    0.45474588153930
C          14.26794424655934  -17.05087204062349   -0.41647528454824
C          13.71445555319165  -15.86937545586083   -0.72466474097097
F          14.24884288281572  -14.91969313927533   -1.50217804190931
C          13.51451313181097  -19.02139755316573    1.05728395070146
C          14.59269360030765  -19.82771714531491    0.86544470747237
C          14.76079364761470  -21.10708260229565    1.45536408639434
C          14.25917981320469  -21.61448665381802    2.61350196678774
C          14.26347533118471  -23.10531734390639    2.79507957725746
O          14.84425148623784  -23.91007395401063    2.10546153266305
C          13.38539991247331  -23.31813653855816    3.93809903587307
C          12.98021692850045  -22.10842053213220    4.49230566716884
C          13.60907701913315  -21.01838323045592    3.76839916973845
C          13.72668145416365  -19.74170827422193    4.25114265071810
C          13.08744563514427  -19.33832194145110    5.44249077243671
N          12.55587016141132  -18.99214716009534    6.39836129934042
C          14.53053160632979  -18.73362034731076    3.68516876872880
N          15.19506544530600  -17.88469979460162    3.29199180440205
C          12.13432778638131  -22.27799013978964    5.60433857659254
C          11.91886733118949  -23.60173871632283    5.85368072156485
S          12.73691285143810  -24.66307624266221    4.76953595883259
H          -1.79691213318196    1.98424585855423    3.72580289537534
H          -3.90820789642700    0.54859806459093    4.25833007025859
H           3.01885306030339   -0.59262996347834    2.05836143862583
H           4.66275003575090   -2.06023007917208    0.84817262421693
H           2.06369078290521   -4.14808654172351    3.62661234175494
H           5.72985153764252   -6.87448579970872    1.54617877523542
H           8.24649786849459   -4.82041514010261   -1.33960826125186
H           7.59040442501199   -8.34224251802525    0.45299715865994
H           9.26880330412544   -6.86130438030727   -1.64260770903857
H          11.38342220457729   -7.21553852548845   -2.53147409781543
H          10.48419881806985   -7.99953906773930   -3.83051142109119
H          13.34984183541055   -8.58074996495649   -2.92168551690083
H          11.52004805868202  -10.20610788915239   -4.76510620937165
H          13.17354155919110  -11.06550613771573   -2.33174372252897
H          11.97667420958794  -12.03179338527575   -3.19738168050179
H          12.66212790531117  -13.19172786510915   -1.38710025007757
H           8.81961459135371  -12.88979710584247    0.61226536891784
H          11.35221833074275  -17.19403742516389    1.22074232549465
H          15.22584774618012  -17.41420403397104   -0.72968543169760
H          12.70599306443497  -19.36416109235206    1.69170078418284
H          15.34583103452934  -19.53542894317515    0.14768438990694
H          15.33478005363716  -21.82463900570079    0.87460255714253
H          11.70297625141284  -21.48251364049154    6.18298967330122
H          11.31631791852843  -24.02295507303782    6.63462986423543
