92
 SCF done       -172.733062069028          0.000924538862
C           1.43437055982967   -3.62712485975469   -1.99842618714488
O           2.51723180434566   -3.98770849148882   -2.44255890085412
C           0.60297677930735   -2.56002260902821   -2.53104399213569
C          -0.48366326300342   -2.31196077908578   -1.70533704560928
C          -1.30386728415824   -1.27868773644911   -2.19507123224152
C          -0.81450201625137   -0.77976042601507   -3.36780420596558
S           0.63570341983520   -1.53414907317033   -3.90058294668130
C          -0.42898073230449   -3.23421981742068   -0.58385529227635
C          -1.36968412960930   -3.28410760546696    0.41383998031987
C          -2.45116271151172   -2.37965191198782    0.44966294098336
N          -3.33648497443296   -1.65113073753358    0.50331350036787
C          -1.40736535552899   -4.19603997320308    1.48574513805642
N          -1.51955663158173   -4.91076122310183    2.37820699944413
C           0.73754855001672   -4.07905748541740   -0.77614722965672
C           1.14041358963928   -5.04070205715809    0.12682460711849
C           2.09006938716255   -6.07007311590033   -0.00946570909230
C           2.56382250980501   -6.57522156589225   -1.20750013385223
C           3.46466664586138   -7.61764600895311   -1.33830929950602
C           3.87031062220337   -8.42595026746715   -0.17936279244364
C           3.52530675789006   -8.13736265590556    1.09521335945440
S           2.57362916745704   -6.78294148066082    1.54181817359163
C           4.61886042880942   -9.50537002839461   -0.72025757184956
C           4.69985595765613   -9.37845353856484   -2.11195441085529
C           5.45025149350928  -10.42306697456403   -2.69891583785623
C           5.90379677685702  -11.29685763706127   -1.76500734209992
S           5.44994110790482  -10.89129742759093   -0.14013170063733
C           4.02046135175036   -8.18471628405798   -2.51554978725909
C           3.96354504069406   -7.65811845927438   -3.82783826555609
C           3.74030303733461   -6.33655270453398   -4.06519697034571
C           3.48675988776960   -5.68102844317272   -5.28894648160807
N           3.14325068773542   -4.34685584681778   -5.23582303947515
C           2.85826609909087   -3.92458318435382   -6.48758669093166
C           2.43771579677918   -2.83148829340439   -7.22980640812894
C           2.39811023871114   -3.26055825194087   -8.56614936990469
N           2.78523808417757   -4.58763480000218   -8.63204384284098
C           3.06678832871239   -5.02112141892047   -7.37491266881336
C           3.45317533250339   -6.12262213370540   -6.62340698546143
C           2.03595679225442   -2.53771120765064   -9.72314534423591
C           1.66135470529083   -1.22995744846226   -9.70704073070998
C           1.27129820311422   -0.45122104854160  -10.82367145778555
C           0.92234300312347    0.87676731043607  -10.66700520772830
C           0.48925569014211    1.72031593361483  -11.67832216551191
C           0.34351025054038    1.24812416182471  -13.05443156135068
C           0.64716918670353   -0.00708680214532  -13.45343521387566
S           1.22929463572021   -1.22840289842528  -12.39776114299470
C          -0.18314727177253    2.35544750111787  -13.77617010506053
C          -0.37965951774224    3.44092891236268  -12.92011025550971
C          -0.90147393652419    4.55853162931767  -13.60832833373463
C          -1.08665092791470    4.29631798598112  -14.92903284277673
S          -0.63847005158269    2.69353788580958  -15.39747940088829
C           0.04728871586772    3.06504536213415  -11.59420413087683
C           0.01650517936873    3.78743063416931  -10.39567593348551
C          -0.57163268967383    5.00278466145436  -10.15778859042452
C          -0.57000769236860    5.65427390646716   -8.91650380861141
C          -0.25699948725008    5.20100866745792   -7.65299686972969
C           0.10310932982888    6.22116678516024   -6.62743672297278
O          -0.01069977250200    7.42360089622484   -6.72284138205678
C           0.65307549006084    5.43616733817999   -5.52035549619033
C           0.55897468825870    4.07892434594136   -5.78484132935488
C          -0.11632363135676    3.89595754832140   -7.06267853022044
C          -0.68238168091659    2.69725066919365   -7.44405263475784
C          -0.41152024011083    1.50039913266594   -6.76367179949845
N          -0.16087519517656    0.49739175781919   -6.25884771813331
C          -1.60766247326851    2.54256377406611   -8.49175206688371
N          -2.39719807484748    2.35945202216188   -9.30541098377846
C           1.07037161798875    3.28492200728909   -4.74064574620481
C           1.54215726434822    4.06208970133691   -3.72388341105928
S           1.36802333064985    5.75525634241248   -4.00125109905690
H          -2.19843546684191   -0.91794608342531   -1.72259624606484
H          -1.22963344571816   -0.00008605711140   -3.97588828746375
H           0.66286154437900   -5.00579291491620    1.09937629805785
H           2.13738510590570   -6.15225547561744   -2.10190091930711
H           3.84240027588369   -8.73910860227174    1.93252761488252
H           5.64230811506286  -10.52464349341656   -3.75154559659269
H           6.49415912551490  -12.17864122759603   -1.92040874828337
H           4.13214725692571   -8.34296707158822   -4.64784781792178
H           3.73531807402040   -5.66957214927431   -3.21604111835267
H           3.02561851388565   -3.85184345956422   -4.35994899084261
H           2.17490841720916   -1.85804399961172   -6.87021970546923
H           2.83510810282100   -5.12382002728216   -9.48095262976755
H           3.69171947528128   -7.11049669927360   -6.96217078113963
H           2.06407710054462   -3.07044965615245  -10.66579804203939
H           1.63786060812787   -0.71282821686182   -8.75862088835270
H           0.98575328719687    1.26164658945046   -9.65852833344944
H           0.53407261869283   -0.33864928337828  -14.47332056405733
H          -1.13003522616841    5.51206033349045  -13.16981922267226
H          -1.46885521118200    4.95841366615537  -15.68118524989262
H           0.54614898484889    3.32828326269949   -9.57213220559397
H          -1.02718536508171    5.53348413335680  -10.97955880410832
H          -0.78072371542370    6.71991292628437   -8.94013111725670
H           1.10436248487867    2.21110008363617   -4.73430808427095
H           1.98925155370730    3.73051126250561   -2.80717090290739
