94
 SCF done       -201.675806505762          0.000564676535
C           7.26570822837589    1.65306264968130    5.92176911577284
O           6.86576767292991    2.43595996335314    5.08882093393499
C           7.74773213798983    1.90219989091683    7.26581433386250
C           8.19039348896176    0.72988001355568    7.87805409197093
C           8.66391623738506    0.94985211471423    9.18522820337209
C           8.56765623303906    2.26844578445573    9.52232493626335
S           7.90992789426988    3.26610303263262    8.28101365182821
C           8.01479328669732   -0.38340565337354    6.97430770942719
C           8.34203377521538   -1.68228662707277    7.23407011464196
C           8.93348174426939   -2.06685738060999    8.45871816394699
N           9.41753095987657   -2.39438566721011    9.44499557777280
C           8.13673330056393   -2.76857791478455    6.35653946852307
N           7.98509439455931   -3.69475386864176    5.69700534580066
C           7.40568485516023    0.16255847356045    5.76003083237466
C           7.01638070712542   -0.50512837416158    4.66448061413639
C           6.37767439002234    0.12151459904002    3.51460652428602
C           6.94983318467489    0.01420314555968    2.25154038477398
C           8.21909634023641   -0.63697694849371    1.86986474096727
O           9.02703681743521   -1.19363735420185    2.56683170933046
N           8.32802778982465   -0.47042792190453    0.48278182946260
C           7.26004236540818    0.25746118819105   -0.05022713146689
O           7.10420667466517    0.54580852718644   -1.20721779111080
C           6.38414196506292    0.58156358042528    1.10740164120375
C           5.21246116631765    1.31012373602761    1.16626113037087
C           4.62625211384329    1.42481024326692    2.42522701536838
C           5.17185754210510    0.83982617995174    3.56587497943040
C           4.37300450782255    1.03955964094287    4.79191494169890
O           4.56211813692419    0.58703168907271    5.88243551502984
S           2.96935606198927    2.08603832162875    4.40631699353336
C           3.38221469287570    2.18715526341800    2.66087565854516
O           2.73029084666734    2.78137767280707    1.85894197405199
C           9.41482919655503   -1.00589771396204   -0.20007800663691
C           9.58046297848800   -1.00476620070622   -1.53107704021883
C          10.70931118611811   -1.58583383968149   -2.18426466055102
N          10.76193813753744   -1.65324915804859   -3.55685552318029
C          11.92094175176531   -2.26482112484540   -3.91364440071048
C          12.66981164291875   -2.70607399957850   -4.99152801677143
C          13.84073651887326   -3.26513006828581   -4.45052032504590
N          13.79360820171646   -3.18162661640320   -3.07216859313364
C          12.62910851509847   -2.58291433702385   -2.72078681549031
C          11.86245266972686   -2.16081673267755   -1.63844232998421
C          14.91680349900286   -3.77870892360207   -5.19916337818906
C          16.08098035363200   -4.27795095089479   -4.70024532166948
C          17.14077530010395   -4.75532471448848   -5.52040249135111
C          17.37871389372111   -4.29489478635311   -6.83665898270820
C          16.87523047143321   -3.08650781374697   -7.51654217548126
O          16.28934052141188   -2.13610725393536   -7.06744978336791
N          17.34282403599017   -3.17475252102837   -8.84661555733594
C          18.24076740830185   -4.24201964327654   -9.00971330770488
O          18.80335157940330   -4.51149661319918  -10.03411559707437
C          18.30013692975538   -4.90701802730866   -7.68736148357898
C          19.11072347901280   -5.95245208690154   -7.28063448637250
C          18.98156775334934   -6.33377998987478   -5.95023507494437
C          18.04340202639848   -5.76664569785352   -5.09020960059650
C          18.06783585508940   -6.32815190570715   -3.73440096664948
O          17.39120876959292   -6.04597675090659   -2.78763258941096
S          19.34853584595976   -7.59822237167918   -3.63781093003728
C          19.82623813981808   -7.38810819928013   -5.34869673903288
O          20.69044217926754   -8.01591753817534   -5.88092991585308
C          16.90045172512440   -2.42438811031112   -9.91392616978517
C          15.96234402225142   -1.46470034402129   -9.82170901351167
C          15.40090478111334   -0.79940950682884  -10.94360683205876
C          14.23815687761047   -0.09941324441609  -10.92422962448573
C          13.89422912345562    0.83246109046798  -12.04501806728272
O          14.43041025527300    0.89218832863255  -13.12570961566628
C          12.81701451619662    1.64945905185283  -11.49300743718698
C          12.45521760369596    1.21529022737974  -10.22170782581249
C          13.23588590974538    0.04226725808337   -9.87956862528477
C          12.91788137114461   -0.82801661121549   -8.86964864103119
C          11.90019801733698   -0.55151777589875   -7.93169593979103
N          11.09993503060839   -0.36903829473978   -7.12888172940531
C          13.45050274345704   -2.11921580490974   -8.67899166472012
N          13.77298780675347   -3.20318413275597   -8.47731228909474
C          11.41616902260737    1.98260111786843   -9.66163846365581
C          11.02967467809949    2.97387118431893  -10.51488577850839
S          11.89496390052373    2.99287373223801  -12.00591571992125
H           9.05070397416655    0.19123083539810    9.84003123583588
H           8.85281094934854    2.71922880265208   10.45307342932188
H           7.21137253830823   -1.56517089980998    4.56454094885354
H           4.76932896437583    1.77142804889358    0.29819537785988
H          10.12948666096197   -1.45691932148132    0.47338781046686
H           8.83175095775336   -0.55691643344082   -2.16756821232282
H          10.06793003587813   -1.28185668844866   -4.18381572114155
H          12.44268415033504   -2.64321554137938   -6.03551508362565
H          14.50105912877396   -3.53388178610055   -2.45084388168510
H          12.09201426294335   -2.24318955390063   -0.59616614747746
H          14.74816737861195   -3.77457339458097   -6.26613432435484
H          16.20529982102597   -4.40497178644814   -3.63576519724809
H          19.82176886639916   -6.42589732202965   -7.93744774016632
H          17.31974491844257   -2.74576901242901  -10.85979654522374
H          15.59033526063625   -1.19225605143158   -8.84648849803118
H          15.94730119674386   -0.80534659217597  -11.87956442451106
H          10.98399903199020    1.82630555048694   -8.69067794569880
H          10.26499616664555    3.70778056000822  -10.35037075952436
