148
 SCF done       -232.536457128382          0.000477569282
C           2.51179688650627   -8.37943457432978   -3.63749979314638
S           2.38177304855939   -9.58906092791451   -2.43682713909529
C           4.09124796534410   -9.88178897033167   -2.42573381749669
C           4.72595458219281   -9.04889741882899   -3.34706574847521
C           3.81442881671052   -8.18216504979848   -4.03507858969410
C           4.31216158186866   -7.26728952555696   -4.99217893354990
C           5.64668230132358   -7.20549316266193   -5.26416771464671
C           6.16895934043800   -6.23326954553315   -6.27747231787100
C           6.55839635142225   -8.07029648881990   -4.58089771595074
C           8.02199055393826   -7.99276582268226   -4.89210651827760
C           6.10147628175808   -8.95960160038651   -3.65095693273471
C           4.71321756341041  -10.87141489344132   -1.60130432743816
C           4.14865912312331  -11.56435225841689   -0.60353189720382
C           2.78716763241207  -11.34856390275572   -0.10104986409686
C           1.75807624146959  -12.26831800241427   -0.35722081991880
C           2.01775911173320  -13.40791683600570   -1.25023256457010
O           3.12074302475457  -13.85759342796732   -1.48275946209121
C           0.82090663692232  -13.94248637170236   -1.95694827574082
C          -0.03484461444205  -13.18077766237752   -2.69035683538495
S          -1.21367055403891  -14.12761873696650   -3.51001772833938
C          -0.54573334997086  -15.57338432170473   -2.86946791078875
C           0.53223903634559  -15.33713837449560   -2.06779264693851
C           1.24609806948100  -16.36123480024568   -1.26994588833002
O           1.54840275269146  -16.15282944356064   -0.11434262148712
C           1.51562550957522  -17.65149209382967   -1.94836965109020
C           1.66583506972682  -18.79477216382868   -1.16514351006563
C           1.91494585669528  -20.01781136332630   -1.75645423640767
C           2.03458351791557  -20.10774016994539   -3.13442279296045
C           1.91144690623676  -18.97106005849235   -3.91762837883346
C           1.65025352413814  -17.74627879643110   -3.33160213325212
C           0.49712135733545  -12.05444248794145    0.20238323950337
C           0.24142970101575  -10.93142075536772    0.95562219178678
C           1.23487297004981   -9.96878698651872    1.15059431452772
C           2.50369137169068  -10.20411908350130    0.63220270311212
C           0.92937265116003   -8.72040068610739    1.85630508301998
C           0.16764710531335   -8.71704892258703    2.99089584698463
C          -0.16027928311459   -7.49076721098608    3.61562364736708
C          -0.91837484045953   -7.22032346622264    4.73978074081724
C          -1.53836979457072   -8.21349582179027    5.66510685610877
C          -1.16278674001774   -7.94598673223081    7.13463246816080
N          -1.01198892786585   -9.21628227306611    7.82762051537583
C          -3.06410388413795   -8.26811944785325    5.47744951942690
N          -3.36982091771476   -8.83094811221680    4.17234183455966
C          -0.98937130535333   -5.78104189622088    4.85457183206635
C          -1.66120877968326   -4.98811782276646    5.70633852520588
C          -1.59527197298597   -3.49835422521096    5.61108421559993
C          -0.70596371371919   -2.98088302170608    4.52898082656237
C          -0.06504471987449   -3.78952302486400    3.66464686840642
C          -0.19017881689908   -5.19554979844794    3.76686600238775
C           0.30358860370477   -6.24407260634796    3.01773122392885
C           1.10765394250256   -6.28963052102587    1.85467979032818
C           1.41381930996667   -7.49069909871143    1.30277573240341
C          -1.19842715145516   -3.00561159572510    6.98339320130058
C          -2.06665846789914   -2.94552388437658    7.98622925651875
C          -1.73005015057050   -2.60817641953731    9.36480662084296
C          -2.33923650426097   -3.30904484185558   10.41985174466925
C          -3.26015542689196   -4.43146614270714   10.13411647220586
O          -3.03952823912798   -5.27332098679394    9.28024860913858
C          -4.50074197974354   -4.47421605333671   10.92329285125117
C          -5.04023865542570   -3.45649494821615   11.66353310880676
S          -6.56048025964002   -3.86775754054447   12.32768365190387
C          -6.50193290509089   -5.42573413686437   11.58876422433579
C          -5.36261444013804   -5.61674964217971   10.88060706457770
C          -5.04788733173717   -6.85433054372567   10.10428646275300
O          -5.68918563126062   -7.15383876422663    9.12266569161634
C          -3.97592665268248   -7.71264116653179   10.66030405531827
C          -3.72069077634804   -8.92907301302650   10.02774426787691
C          -2.76330661172041   -9.79068932079080   10.52653791653804
C          -2.03667062646600   -9.43742520647062   11.65321332875565
C          -2.28041077325055   -8.22836611343823   12.28539659807760
C          -3.25174837691447   -7.37260436158182   11.80124793807510
C          -2.00059264537266   -2.99176575763063   11.73426840054671
C          -1.11225975593136   -1.97651805939738   12.00856504550017
C          -0.53936450844879   -1.23116365697516   10.97095960257364
C          -0.84212108007098   -1.58235537934586    9.65498335112743
C           0.36117360829328   -0.14147783469108   11.26581044964468
S           1.41540711792454   -0.24157442119698   12.63018275776677
C           2.12081938279717    1.30851463388360   12.33077220455660
C           1.56001736634451    1.88575771965230   11.19190905997928
C           0.54382689077466    1.06753760656634   10.59784716987179
C          -0.18057583004957    1.57238639824234    9.49482375995522
C           0.13532551270304    2.77933984759064    8.94041559712597
C          -0.64856329246378    3.30277619079274    7.77701229097422
C           1.22479164171069    3.54107140352898    9.46043654041014
C           1.60828491065959    4.82992958833160    8.80166263468423
C           1.90257432209282    3.10256085809518   10.56190604890935
C           3.11915698736663    1.77262879290287   13.25403266870010
C           3.44863247274229    3.03843131474607   13.50646306074683
H           1.63106554156293   -7.87337569797532   -3.97927247235101
H           3.61332136823213   -6.61909693540804   -5.50135605343819
H           5.35474643663348   -5.65417748618068   -6.70606134024620
H           6.68372277195424   -6.75531541268614   -7.08338794601636
H           6.87950279707043   -5.54511859006292   -5.82047600824709
H           8.40846240123592   -6.99505350774665   -4.68602297873229
H           8.20414550084326   -8.20831398459759   -5.94454561185788
H           8.57902080424250   -8.70859755697622   -4.29282810701276
H           6.79877256565288   -9.60515750806634   -3.13752007876853
H           5.74492112219389  -11.07763453490898   -1.85266504796750
H           4.71784536473123  -12.33151883867022   -0.09903154777700
H          -0.02395121746692  -12.11564309007935   -2.81317806099991
H          -1.00614775347696  -16.51604689723769   -3.09161853480771
H           1.57638441393611  -18.70048804813470   -0.09309811514762
H           2.02064161632403  -20.90205290376906   -1.14546675417695
H           2.23193292830367  -21.06301394036809   -3.59838582805645
H           2.02136165470314  -19.04064021860184   -4.98992203615926
H           1.57657823992587  -16.85948925702784   -3.94304858306627
H          -0.28172848009821  -12.78653197669733    0.04903758719017
H          -0.74222818000703  -10.77008566994597    1.37084328034170
H           3.29672434809556   -9.49204156052354    0.81165390523494
H          -0.18422445990297   -9.64315421766588    3.41994247614509
H          -1.14616985060609   -9.20295862409725    5.41305718113877
H          -1.90915643766774   -7.28793946418506    7.60609777504447
H          -0.19458118052794   -7.43852335514163    7.17536620170415
H          -1.89157847992790   -9.72149625894051    7.80740197589462
H          -0.77246632468308   -9.05696726899717    8.80049048645438
H          -3.48457900287650   -7.26026216515280    5.62907142796070
H          -3.50296893839920   -8.93037731100036    6.22959083934272
H          -2.94047774509574   -8.26380624379221    3.44752268487690
H          -4.37171415305899   -8.83460077818179    4.01475258303260
H          -2.26365053111330   -5.37926022374659    6.51309461202279
H          -2.62094441842999   -3.14378903582880    5.41932552077150
H          -0.61388352599262   -1.90650747066649    4.46593989601294
H           0.55496261901028   -3.37612557085572    2.88148507618146
H           1.46128850697234   -5.36867850420393    1.41351738906911
H           2.00674845873410   -7.54163959338432    0.40103614175339
H          -0.14712662712134   -2.80667516303966    7.13154917366388
H          -3.09997772942130   -3.21553444339658    7.80644808050896
H          -4.63331244148338   -2.47908698086055   11.83303625864534
H          -7.31164733850372   -6.11273911243843   11.73254386418232
H          -4.29681711694465   -9.17763231548518    9.14846876295353
H          -2.57968658987739  -10.73928583538507   10.04366561283792
H          -1.28191288924254  -10.10603461872727   12.04022892630429
H          -1.71448451400917   -7.95608818147335   13.16420553128820
H          -3.44399789991139   -6.44100146920841   12.31276513866287
H          -2.42155012555172   -3.56658760278261   12.54651474826928
H          -0.86097692773392   -1.73789397043301   13.03161468505845
H          -0.36502345610516   -1.06224594544911    8.83943161515936
H          -1.00837457785117    1.00087093884596    9.10339708122186
H          -1.45178507570337    2.61805924799089    7.51684433647033
H          -0.00639962375945    3.42951194842247    6.90603352261561
H          -1.08323825029808    4.27353013289671    8.01182419995538
H           1.86746917981861    4.66505478716070    7.75648775126680
H           2.46267497788111    5.27775206772589    9.30275936605952
H           0.78055650104155    5.53802108983367    8.83010010998557
H           2.72705887322676    3.67990523725252   10.94831445351706
H           3.60169118356397    0.98362379045795   13.81919602114732
H           2.96171559160676    3.87162033058394   13.03293213188844
H           4.21191187138282    3.27579197117121   14.22670577358478
