152
 SCF done       -211.773335753124          0.000459034830
C           7.57460446853096  -15.29854869836727   -7.20041048253046
S           5.97819494580796  -14.76809422241207   -6.92896417980504
C           6.02518545861559  -15.19590186940282   -5.24400701637961
C           7.28448963576312  -15.70134403374299   -4.91288247444070
C           8.16144135956304  -15.77026384045269   -6.04711680308133
C           9.47184621349033  -16.27819362488321   -5.89068453782158
C           9.92137527194540  -16.67414038389331   -4.66588376167425
C          11.30745406359516  -17.21916835758708   -4.50616993098674
C           9.07375022749839  -16.54811842668131   -3.52223791166058
C           9.59653390814221  -16.93310287016831   -2.17200325225593
C           7.79851089339679  -16.07405906655465   -3.65232141971846
C           4.82894555390895  -15.01144695612506   -4.49110927456008
C           4.49912163959984  -15.63143630927895   -3.34000053911583
C           3.26617926976571  -15.45716721376686   -2.60842462352172
C           2.35302212131191  -14.43013954107492   -2.89419086330036
C           1.17862779405869  -14.34307121184569   -2.18722422038383
C           0.90722109773663  -15.24390516664656   -1.14204277078338
C           1.80772754121300  -16.25267342962974   -0.83536898890601
C           2.96958211667717  -16.35374281617380   -1.57272794473542
C          -0.35036147309389  -14.87541062539658   -0.52574669673841
C          -0.85297240767787  -13.74324415604389   -1.18474280758549
C           0.04700272844555  -13.35045618832664   -2.33791234061332
C           0.52739088866899  -11.89632489686804   -2.23031837786956
C           1.21150174741283  -11.61164520626780   -0.89802423171574
C          -0.75859285784931  -13.59103714726463   -3.63632770707955
C           0.01494765482739  -13.44279267478886   -4.93990359090745
C          -2.04029325641229  -13.17346112212289   -0.79004285742663
C          -2.75488820565733  -13.73558356390460    0.27233381201348
C          -2.24489715234159  -14.86213268925941    0.91992140418726
C          -1.04718267551601  -15.43420847033066    0.53455113298803
C          -4.04374543124467  -13.16100504948277    0.67583546839378
C          -5.10478426207561  -13.97347175962054    0.96587780133316
C          -6.36496464285166  -13.41800043678241    1.29487936858434
C          -7.58825188507787  -14.00014098272323    1.57890837851969
C          -7.94978832685652  -15.44804437251734    1.66737355874140
C          -7.87669808024700  -16.13069661311747    0.29220820217838
N          -8.92136332022100  -15.59162647556108   -0.56623811091222
C          -7.08733334671273  -16.19422283177800    2.69657604858628
N          -7.60788124002784  -17.53594064890009    2.90591108420189
C          -8.53143784370139  -12.92016140627585    1.75567338111473
C          -9.86354755610947  -12.92860922452808    1.94165932402575
C         -10.65226214561434  -11.66695684469987    2.02693332090548
C          -9.83204025902642  -10.41694944512258    1.96728693881343
C          -8.50171306395516  -10.42518858918271    1.76181593903872
C          -7.80714934928619  -11.64905472199960    1.61499570974824
C          -6.49527675751447  -11.96404804769386    1.32580096801431
C          -5.36796399598532  -11.15378467270058    1.05563011166307
C          -4.18642837608786  -11.73777178101939    0.73443636485761
C         -11.49942690518855  -11.69354279025436    3.27543990724322
C         -12.82753091148263  -11.78340175131726    3.25613177080408
C         -13.72717097893001  -11.84064017851321    4.39661924299311
C         -15.08814348101490  -12.06763373983247    4.15011259911869
C         -15.96977058063213  -12.15275909331004    5.19957646231410
C         -15.52089019035071  -12.00540070481775    6.52199421001292
C         -14.17901996851833  -11.76727160430489    6.77838097392619
C         -13.29660701245931  -11.68848420347045    5.71803650124443
C         -16.65460286438259  -12.15518840127238    7.41228224200555
C         -17.80011316781665  -12.39758598644198    6.63664103428151
C         -17.46004970182874  -12.39774271127107    5.16484400739511
C         -18.19583236414001  -11.26956833352290    4.41825421573267
C         -17.91400148349712   -9.89162535887605    5.00472805495231
C         -17.79726172686683  -13.75201545579357    4.51477068825596
C         -17.11866041980224  -14.92568376196185    5.21106920490072
C         -19.02236151613908  -12.60215747016957    7.22795432298938
C         -19.11952099461198  -12.58444784308067    8.62658443306106
C         -17.97894902189453  -12.30419031320852    9.38769283287585
C         -16.75055273546842  -12.09141667570919    8.79438814473932
C         -20.38534005360442  -12.83740132890408    9.27600397932162
S         -20.80942979423790  -11.97954986145210   10.71492369873328
C         -22.35948342936759  -12.74059484569392   10.83067894363051
C         -22.52947012744166  -13.65431298104834    9.79066252682504
C         -21.40170769493684  -13.71677146466291    8.91072668097135
C         -21.40608449322374  -14.66587150343985    7.86385105021577
C         -22.48872904805324  -15.46990589128483    7.65036032094472
C         -22.47367195264179  -16.47334935043002    6.53794936429335
C         -23.63714792210545  -15.36515220030115    8.49198037353263
C         -24.82545723053887  -16.24022351819725    8.23588105494317
C         -23.64025472239694  -14.48762919105521    9.53851445268129
C         -23.27594804308603  -12.42201370276385   11.88090410198972
C         -23.04622465978402  -11.55193726136369   12.86505515276528
H           7.99876099564410  -15.24187574280997   -8.18290880528640
H          10.10963065045868  -16.33987358663409   -6.76084238920957
H          11.81224945783513  -17.26653707956211   -5.46792086153643
H          11.28005916139094  -18.22128284240770   -4.07955103182205
H          11.89490957403929  -16.58969685460125   -3.83828907905760
H           9.86853038930845  -17.98822062623625   -2.15100048658878
H           8.84660216580833  -16.75522583100804   -1.40523253245007
H          10.48713847961629  -16.35644555491514   -1.92436564433108
H           7.18438880073547  -15.95437950026860   -2.77379552179847
H           4.11251798078574  -14.34825293807387   -4.95920991285764
H           5.17052207502447  -16.37376812974119   -2.93294226406563
H           2.59044400028665  -13.70160352522690   -3.65300602370084
H           1.60623798100544  -16.94556512371643   -0.03159383543837
H           3.67512115888242  -17.14209703339749   -1.34931100027198
H          -0.33094197519231  -11.23105620903313   -2.34916236091826
H           1.22812462053938  -11.68809997605860   -3.04013068360822
H           0.53000470239843  -11.79255909218667   -0.06964148250272
H           1.53863771360980  -10.57488451171510   -0.85645734868061
H           2.08093436459352  -12.25319370145497   -0.77101137946242
H          -1.59909039037764  -12.89277790093114   -3.63866891860904
H          -1.17199783458203  -14.60222467983026   -3.58936177991898
H           0.46636534280814  -12.45760870895736   -5.02463590211384
H          -0.66550502610609  -13.57399280854973   -5.77901180974583
H           0.79272303849530  -14.19767281325162   -5.01632831045547
H          -2.44036612566009  -12.31280795273822   -1.30674694337407
H          -2.79248343402121  -15.27949542582450    1.75277983045448
H          -0.66373783979886  -16.30179407835165    1.05126496246733
H          -4.99148270054594  -15.04490813579066    0.89749829311281
H          -8.99180328923080  -15.52217541048647    1.99511410884988
H          -8.06240872992158  -17.19873884943995    0.42663197758839
H          -6.86543850674794  -16.00296622284274   -0.12424286880797
H          -8.76335674647102  -14.59800832769748   -0.70831014775257
H          -8.89447668654226  -16.04190112156234   -1.47476451611554
H          -7.05056892028239  -15.59099506805065    3.62056952698105
H          -6.06576886150208  -16.29758983868868    2.32609063674167
H          -8.55234421543465  -17.49044791177789    3.27523959278501
H          -7.03607148324655  -18.03490468435666    3.57867099988311
H         -10.42823373413587  -13.84802928973360    2.01627922472822
H         -11.34094285898787  -11.66395138441484    1.16650363175397
H         -10.37724374889791   -9.49237873545136    2.08538584480647
H          -7.94853666233813   -9.49835916332380    1.70223305533293
H          -5.46344901372943  -10.07822120910537    1.10092634576060
H          -3.31481261039749  -11.13147841982394    0.53405427002458
H         -10.94029719851550  -11.64606672603304    4.19791727950444
H         -13.32511814113414  -11.83853727242235    2.29374414354527
H         -15.43190947316983  -12.18145015111718    3.13117947052614
H         -13.82540927746313  -11.64689292087870    7.79177031583784
H         -12.25265200313951  -11.50145922283360    5.91726903025758
H         -19.26945340060802  -11.46673312383093    4.45705416000917
H         -17.89058473552081  -11.28701387908387    3.36959497165996
H         -18.22937092098408   -9.84612016363107    6.04474611597170
H         -18.45376909381616   -9.12945369271908    4.44718680764084
H         -16.85107579120639   -9.66494546400168    4.95894062718323
H         -17.48969358327257  -13.72527246124532    3.46713092315766
H         -18.88058190477604  -13.89109543303387    4.53979409488197
H         -16.03706241118752  -14.81369344923566    5.18333217809525
H         -17.38141608480982  -15.85889641252543    4.71755112714296
H         -17.42829759882886  -14.98622640743521    6.25229140876863
H         -19.91030092260472  -12.74438495300699    6.63116912396715
H         -18.06990027306717  -12.27326822996053   10.46414687789212
H         -15.88031388145819  -11.88722704684751    9.40021175356162
H         -20.52674641100902  -14.77191444526727    7.24657980447490
H         -21.52760954630786  -16.43785546439550    6.00324022804605
H         -23.27887930785152  -16.27668453956798    5.83051180288358
H         -22.61293039576805  -17.48165997226191    6.92642579395151
H         -25.21866559545264  -16.07188233693125    7.23378355681421
H         -25.61459724598143  -16.03569900568443    8.95513159646890
H         -24.55271758202955  -17.29242994396622    8.31256147291220
H         -24.49980552515285  -14.43148556624087   10.19018710762729
H         -24.21992929270469  -12.94958478775950   11.84160306679245
H         -22.11629642060124  -11.01182318984889   12.93227297122752
H         -23.77806073263886  -11.35605957746524   13.62798057688794
