106
 SCF done       -183.073808944340          0.000485400619
C         -10.09766365689541   -2.37969766874815   -1.94227809461626
S         -11.49616801538927   -3.17169572169349   -2.56971806581943
C         -11.29022538125629   -4.84256727199052   -2.05382812382354
C         -12.28650048367563   -5.75776061004499   -2.20691487899908
S         -11.84489950505505   -7.30735902893450   -1.61754925937640
C         -10.29965191443958   -6.71711620847447   -1.14971451973473
C         -10.13573520127597   -5.39739525723670   -1.44058395042403
S          -8.61845368640963   -4.58214739120711   -1.08286349135437
C          -8.98004129019254   -2.86095148341593   -1.35382145037911
C          -7.96687266751280   -1.95296146975034   -0.92092911809201
C          -6.80657005894614   -2.30269785681790   -0.31214201819664
C          -5.86266287543492   -1.32761420688973    0.09773720729146
N          -6.06457965034369   -0.02952827112522   -0.11236088706250
C          -5.00184764234259    0.59817034647400    0.41656104512728
C          -4.05344363788667   -0.35305635986452    1.01443536349270
C          -2.90886897038455    0.36506053142990    1.59246365401060
O          -1.94705649597822   -0.08762948443700    2.18356796286918
C          -3.21861419052452    1.77244306149525    1.29049842918900
C          -4.50380624852556    1.87295189102055    0.57805135966859
N          -4.79750611540702    3.16406187967253    0.29629662263227
C          -3.78999808358958    3.85623236505426    0.77863918845794
C          -2.77023291075091    3.05144353460169    1.41023924681201
C          -4.59009293313471   -1.60246394407383    0.80685559388937
C          -4.10610006691841   -2.89436693831716    1.15552763734667
C          -2.96305614450851   -3.07539508532985    1.85683956112296
C          -2.38655018704834   -4.32326884214074    2.27069684473545
C          -1.28548456465769   -4.28175451376059    3.10460460071161
C          -0.68855103474044   -5.46914365810325    3.55925983857810
C           0.40425507675251   -5.68206504000347    4.39748106361141
C           1.22069356361734   -4.62596763546402    5.04874014046899
C           0.97964817585354   -4.58982388168052    6.58416529263571
N          -0.33205764953476   -4.13806341524805    6.97662489686404
C           2.72304465606550   -4.76240863875353    4.74530908770745
N           3.42073824517251   -3.58332703413086    5.22400765679212
C           0.55942945569954   -7.11009583922997    4.52251832666657
C           1.39783185706846   -7.86487889297283    5.26007406443329
C           1.41510882106201   -9.35120281681746    5.14342381157338
C           0.30496995324298   -9.92897697593326    4.32730498068495
C          -0.56529753459196   -9.16408483794218    3.64043811002988
C          -0.47637974233521   -7.75342158668117    3.69399511977166
C          -1.23187132023978   -6.74758824124003    3.12437003065228
C          -2.35021233647617   -6.76478224850295    2.25842442951687
C          -2.90591242647302   -5.59423837916688    1.85503039099370
C           2.73934289055397   -9.65893027649303    4.47498953474975
C           2.99190699345071   -9.31822961616625    3.20314277207367
C           4.25742176128686   -9.54856276585114    2.58289651338412
N           5.26148987621189  -10.13028647911882    3.22315443208335
C           6.29638999839414  -10.13281508233543    2.35950108220123
C           5.93131044054030   -9.50303836154328    1.08349288406671
C           7.07538026468439   -9.51014193720252    0.16060361359292
O           7.13809047229685   -9.07403807623521   -0.97062863326331
C           8.12622524760719  -10.17366673372674    0.95291255116665
C           7.61089378888881  -10.53499910273849    2.28730155217042
N           8.57116042419017  -11.14486737354379    3.02275685568462
C           9.62602283112628  -11.18420733036665    2.24195683143406
C           9.41766058418061  -10.59695127188363    0.93667164041798
C           4.61497419570306   -9.12899150116058    1.20921076523250
C           3.73358523803334   -8.47731134872780    0.30145173164445
C           4.11199241938215   -8.05401554883873   -0.92641146169292
C           3.26500810015476   -7.38807851302642   -1.87055029017722
S           3.83384934216936   -7.67954982954391   -3.54136519022688
C           2.31582879691420   -7.74131349934409   -4.42076133794046
C           2.12010837945659   -8.49578911839638   -5.53481074351404
S           0.53595177952479   -8.29876348878296   -6.17695114926920
C           0.12298954873948   -7.20437448400929   -4.91658494448063
C           1.16143991955493   -6.99581945710920   -4.06374878798056
S           1.08655067631789   -5.87882541483013   -2.70849654699990
C           2.20278889355706   -6.60382032507122   -1.54319383594834
C           1.95439006824335   -6.15073356702359   -0.18536722586114
C           0.77420419780153   -5.76113565173149    0.28657370576177
H         -10.18532723808475   -1.31149239031458   -2.07947540523138
H         -13.25339897233399   -5.59491939957537   -2.63773879665538
H          -9.58672726242332   -7.37085184064161   -0.69029002734673
H          -8.14334170049198   -0.89995648207114   -1.09093868112949
H          -6.58461918792454   -3.34183040345724   -0.11639582300815
H          -3.77544204152366    4.92840548872102    0.68548511989669
H          -1.87170273215499    3.42310746475309    1.86223130016952
H          -4.70335857145827   -3.73850119729164    0.84096361049849
H          -2.41554071565708   -2.19311623050074    2.16264980666626
H          -0.89265882313932   -3.32211638541909    3.40907555910194
H           0.90378654552493   -3.65305076858351    4.65333445903622
H           1.72169954160736   -3.91669726930281    7.01808883731027
H           1.12564454667773   -5.58957212317274    6.99915174102186
H          -0.49559985177753   -3.18615494788266    6.66846036829321
H          -1.05482749940818   -4.72781938664690    6.57779709540106
H           2.84660421474548   -4.93731063357154    3.66143531524083
H           3.13986402723658   -5.62384912715676    5.27044256256689
H           3.12121940789066   -2.76041981051285    4.71109924455772
H           4.42080487495878   -3.68260630038222    5.09360038140001
H           2.13923582898804   -7.43445442233855    5.91659088888254
H           1.41836309906298   -9.80356985885707    6.14137690095742
H           0.26184647036581  -11.00614304947548    4.28459564050289
H          -1.35035382524630   -9.61616357163521    3.05149383918511
H          -2.75179876212419   -7.71187805757728    1.92845892680231
H          -3.75736692861625   -5.61087080837026    1.19266687058934
H           3.51254719733546  -10.14266506386775    5.05288040467062
H           2.22756261394851   -8.82843459971126    2.61486632766933
H          10.54319880330514  -11.62566814768227    2.59151205557518
H          10.15052372997235  -10.53055765090687    0.15697086647377
H           2.70698298162701   -8.35326227895913    0.61734477008279
H           5.11270496363591   -8.27972168914328   -1.27640510391670
H           2.82582847281688   -9.13810651703230   -6.02029923041460
H          -0.85082638054276   -6.76041500578895   -4.88118921048148
H           2.83181288660206   -6.10811731107200    0.44792521967642
H          -0.12501216826414   -5.81095810787846   -0.30383671843266
H           0.66735014490161   -5.38874283637269    1.28958686572020
