136
 SCF done       -222.109106179762          0.000380152784
C         -10.99396931337370   -8.83196192010074   -2.41481800191024
S         -10.85082765564726   -7.14183369176867   -2.73185395413182
C         -10.44296766970792   -9.22175905911809   -1.22955523294934
C          -9.88518087838238   -8.13698967700162   -0.52583070840069
C          -9.13869223358270   -7.87254066710883    0.70543572548850
C          -8.72814243756230   -8.77588443564986    1.62390374691090
C          -7.86992787435106   -8.39866516651595    2.80124472814787
N          -8.64851348384823   -8.21993563369288    4.01893890562504
C          -9.18680080017494  -10.21060666099804    1.54448153418605
N          -8.98741000073471  -10.93922280797627    2.78805450113309
C         -10.03124720956882   -6.94045385693881   -1.23896669287744
C          -9.44148580101720   -5.89336989364798   -0.50379266697856
S          -9.25691925981255   -4.20213935125930   -0.64698469974371
C          -8.90110822553060   -6.42367194806290    0.68508084567766
C          -8.38229921319053   -5.42090019933223    1.49800119704458
C          -8.47561521324890   -4.15666624902493    0.92680252896103
C          -7.97460036074080   -2.96492927868891    1.48699526745309
C          -7.97367179985697   -1.75075988259183    0.87229310661882
C          -7.42679520790757   -0.55712484668726    1.39675063184865
N          -7.83646348216521    0.61074621108198    0.90056715421392
C          -7.27687718370619    1.56195840880143    1.66120785957701
C          -6.44215978340038    0.97172648298093    2.71579116702117
C          -5.82443422975396    2.01693200027972    3.54000837067781
O          -5.08559054478511    1.88697603317912    4.49726135984944
C          -6.32752717740092    3.25186612025579    2.91838633102095
C          -7.21077897201387    2.93521548275656    1.78268880634827
N          -7.65639755616198    4.06713153068701    1.19189665379754
C          -7.10611143406738    5.04895356107743    1.87284429974585
C          -6.25983325017450    4.61211416447786    2.95409403293275
C          -6.47558377129418   -0.38394098719337    2.52692947197729
C          -5.70070324269236   -1.34606295790526    3.24602838219670
C          -5.22342950821878   -2.50190444635805    2.73978841688948
C          -4.45305722212102   -3.49057011253234    3.45180626798871
C          -3.99753259787906   -3.30352429148375    4.73755073643365
C          -3.26614101524752   -4.31468462262614    5.38889709807237
C          -2.69852700915566   -4.36489729973184    6.65507005052202
C          -2.70568240871508   -3.32905444542250    7.72808427435961
C          -2.29974238335759   -1.93102822820186    7.22154940877329
N          -1.59332851330572   -1.23145259929662    8.28014194049167
C          -4.08233375164881   -3.29175667806267    8.41979450500036
N          -4.04525782429171   -2.40359017534492    9.57025933499782
C          -2.06359354772699   -5.65739634901817    6.77226319283800
C          -1.36748209763368   -6.21812618378792    7.77841232201794
C          -0.71886466894995   -7.54856966351197    7.63370754042768
C          -1.04334269169821   -8.26741443942644    6.35764405435113
C          -1.75203516035493   -7.69578162411076    5.36513642086585
C          -2.27272402991673   -6.38956645894203    5.51440773491799
C          -3.00631475249784   -5.56574203317043    4.68497740002079
C          -3.49043284250059   -5.73519634830772    3.36674104904026
C          -4.18195070686387   -4.72914474334147    2.77697923854732
C           0.78427432012156   -7.40541375250871    7.62315577702090
C           1.40612985495240   -6.27654576671580    7.25897510502810
C           2.82773137564758   -6.12879783650902    7.23908614854617
N           3.65982210555252   -7.11883734836597    7.50851068650646
C           4.90169637166856   -6.58524321153024    7.43165973198679
C           4.85308678593452   -5.15915481711969    7.10130091495495
C           6.20454733077296   -4.59818190237601    7.03772304404454
O           6.54316027061687   -3.45434687115380    6.80434063204203
C           7.05525476942678   -5.76900875643443    7.33699991363734
C           6.21897892089738   -6.95848489733325    7.57188233488135
N           6.98950046325595   -8.04004417272994    7.84985484021297
C           8.22453208199596   -7.59966608772552    7.80119444367933
C           8.33800554112644   -6.19244107749706    7.48593663302179
C           3.51968091629836   -4.84541792284587    6.96495391681482
C           2.86421044298243   -3.63044269222583    6.66695408571754
C           3.48184794548221   -2.43022319146362    6.50211014637098
C           2.76683786685608   -1.24186373420676    6.24282616627040
S           1.01982253786286   -1.27811369823800    6.02632462878815
C           3.27068057839732    0.04911263768547    6.15475176230009
C           2.28004524100564    1.00512650717873    5.94104031407994
C           2.13955724089414    2.45674646391231    5.77216478757548
C           3.11401250767470    3.39213997389944    5.80028254576668
C           2.79183355787894    4.84602852713223    5.56275114941739
N           3.97761494432034    5.68131843949445    5.47750959624383
C           4.56118521975980    3.02777538984622    6.01198877413680
N           5.20381344941465    2.49984619871049    4.81352490136330
C           1.00237135121838    0.41775962208761    5.84554537998295
C           0.04621002306608    1.42538575962751    5.62891846876889
S          -1.65371808385080    1.55264117539398    5.44530012836366
C           0.70144327799812    2.66731630724953    5.58138006185995
C          -0.20419481809509    3.71784959234542    5.40918481071936
C          -1.51411039942339    3.28913383368062    5.31553398922663
C          -2.71294550236441    4.06086481584546    5.14582194656870
C          -2.76349227730632    5.39095266879341    5.08158377955519
H         -11.48790977305808   -9.45029071166839   -3.13817245951517
H         -10.45323538319705  -10.24629573370852   -0.90891931556975
H          -7.31964771164384   -7.48087864532008    2.59659385833835
H          -7.13719697172465   -9.18551728417309    2.99529047709777
H          -9.37485979761237   -7.52701074914295    3.86585397758006
H          -9.10097593023908   -9.10038723848905    4.24861875245661
H          -8.68087683783060  -10.68174189265313    0.68144530663600
H         -10.26131085024081  -10.21829591340607    1.33773260198877
H          -8.00650340748189  -11.14953837566658    2.93746910912028
H          -9.48574816216442  -11.82092381972459    2.75608816611155
H          -7.94720062265062   -5.54926079985480    2.47263621501421
H          -7.56819838149477   -3.06290627056033    2.48446608805884
H          -8.47815166943699   -1.63651201298072   -0.07924994280254
H          -7.30668130532443    6.07203485157264    1.60532518007705
H          -5.71605807840452    5.25193757582386    3.62060451028983
H          -5.43322890823157   -1.03545955027100    4.24740981542522
H          -5.42797751828420   -2.73581619233637    1.70212176410009
H          -4.18307417087853   -2.37561943858730    5.25148663233760
H          -1.96140484016993   -3.60399196993739    8.48282709265388
H          -3.19084973710368   -1.38637086309600    6.87754531823771
H          -1.61779497374024   -2.03611628598100    6.37247763184036
H          -2.23642506241585   -1.09306411698933    9.05468794223625
H          -1.29938906737246   -0.31717133541490    7.95286706364784
H          -4.37271838705927   -4.32557263134006    8.67818278201424
H          -4.82711263346883   -2.90482256430479    7.71948672689354
H          -3.44841154660550   -2.79422123425680   10.29272726401104
H          -4.97383083423895   -2.29043116922525    9.96150515300368
H          -1.19644623925304   -5.70333902690646    8.71440063592116
H          -0.99120187459391   -8.17871848455473    8.49156749073593
H          -0.63412815656675   -9.26039277490110    6.25679512106024
H          -1.94467641782645   -8.23523280643201    4.44885002231192
H          -3.30144177850471   -6.66190569221834    2.84460755122271
H          -4.55773928631608   -4.84537274008178    1.76957180527473
H           1.36865216283794   -8.27698453006969    7.87816269852274
H           0.82265967769945   -5.40814881064277    6.98771373194653
H           9.04698216750315   -8.26828405620921    7.98863069462019
H           9.25540406800570   -5.64392293576301    7.39931880053132
H           1.78504337736177   -3.65786114722941    6.58183163785915
H           4.55811586113958   -2.35614920414745    6.58920120317966
H           4.32469687478014    0.23079612262330    6.25823309383937
H           2.20318012553331    5.20116225040413    6.41652634851423
H           2.15140777453955    4.92093915858641    4.66650638510143
H           4.48162849590290    5.50902914792333    4.61429840102153
H           3.71987660576100    6.66048109242676    5.49534197665193
H           4.64477532327329    2.27557136216083    6.79835058070842
H           5.11001488109552    3.91858177252520    6.32134187468175
H           4.71158675163880    1.67702728799867    4.48111707053516
H           5.18541276530841    3.18959167864394    4.07001175677574
H           0.04790659510688    4.75957456239454    5.35872987419946
H          -3.62168431351874    3.47809123038073    5.07176817951572
H          -1.88517950473744    6.01018118002737    5.15260911872622
H          -3.69798158831722    5.90965947712774    4.96247905033510
