79
 SCF done       -136.928628483307          0.000746142443
C           4.30553855622062    0.38964326511636   -2.80358461541611
C           4.37991224590363    1.67874570617806   -3.34448768772068
C           3.15065378218462    2.22696167589231   -3.60172903812601
S           2.87106894282281    3.81037170676299   -4.28054655490455
C           1.05944834765936    3.86151297100925   -4.32320001256051
S           1.87014182174225    1.13818345575497   -3.17250787562867
C           3.01806259197080   -0.07034187197708   -2.63466841299173
C           2.50835652779236   -1.29274379396544   -2.13160786649872
C           3.24705591823911   -2.32332250447794   -1.63664441471965
C           2.71390820561482   -3.52736118570684   -1.12812449154630
C           1.43438361333240   -4.09059563633821   -1.26437765528507
C           1.29320128526265   -5.27490517117612   -0.46315629943518
C           2.43241880826152   -5.61997450888292    0.21055034967071
S           3.69746970926438   -4.47577409892168   -0.03365373738820
O           3.61780056749512   -3.42574605322815    1.32909454877929
O           0.20331023592628   -6.05676427234778   -0.46760912803256
C           0.47638876084153   -3.63645626263520   -2.19851578805605
C          -0.88716901392642   -3.65408103035047   -2.08196508596758
C          -1.72666382637693   -3.12514179046038   -3.07946453071125
S          -1.12060502444930   -2.79317326876519   -4.68961932684862
C          -2.62724686061826   -2.04179226177775   -5.16444226029918
C          -3.54627497134517   -2.08993765092779   -4.11248305516348
C          -3.05261631507991   -2.70456569714808   -2.96614816328480
C          -3.87699987107730   -2.90922571464267   -1.73007457399209
C          -5.18274641166767   -2.10155527549544   -1.78840955014106
C          -6.07305079116737   -2.56235299286044   -0.74791682692247
N          -6.76275361365573   -2.96634246345344    0.06850025249899
C          -5.84120993621593   -2.26385943817525   -3.17505332709137
C          -7.14626837967699   -1.64518209716620   -3.19751441917246
N          -8.16058312300391   -1.12034697417202   -3.23433817965936
C          -4.95026831591354   -1.59645283404460   -4.23033297107064
C          -2.81316710230798   -1.58157221286815   -6.47435476260697
C          -3.51510879048307   -0.48839533878679   -6.99624551268280
C          -3.59661373723987   -0.56841633769179   -8.41983342285974
C          -2.89027572188953   -1.61860093639506   -8.96321121546140
S          -2.17120137136997   -2.60746000951972   -7.77874721358755
O          -3.28827046902943   -3.87905674485278   -7.38086037501262
O          -4.21637344683013    0.32670022489586   -9.20875115234378
C          -3.87211151167690    0.70252503366071   -6.28984168339564
C          -3.38993276155470    1.06134911822060   -5.08122117778481
C          -3.57622683348430    2.32947477170659   -4.42659129340071
C          -2.54973236012599    2.80288752871843   -3.56137059363303
C          -2.74774392937079    4.06996742631370   -3.11017384021699
S          -1.66435157571141    4.95522484697479   -2.05923418665138
C          -2.55004091301253    6.52807712377112   -1.88445267463986
S          -4.23023101287686    4.73258955189111   -3.71866936610974
C          -4.59305172699094    3.25658075963341   -4.58655699241292
C          -5.88997001075210    3.21774774832135   -5.21257720228040
C          -6.63766540863534    2.14109406679614   -5.44630649955748
H           5.17264085308875   -0.18903049246580   -2.54192249709715
H           5.29776380281018    2.20142486543282   -3.54395205928150
H           0.78950030624106    4.81966453762350   -4.75476261420495
H           0.66689758960822    3.78501093573500   -3.31306698740442
H           0.68641801063520    3.05139687458134   -4.94369375325173
H           1.43146827740580   -1.36762311383588   -2.11630298552729
H           4.31980257030485   -2.20823799574203   -1.55377419583991
H           2.59145360573635   -6.51193024692815    0.77937855724163
H           4.34037599925589   -3.57990373099069    1.94409145207817
H          -0.44305714442646   -5.69190809776755   -1.09115118565196
H           0.88233734603374   -3.16515113260177   -3.08584141415955
H          -1.36469618431031   -3.93521556024419   -1.15126926626309
H          -3.31136353804883   -2.61186611064098   -0.84305279854580
H          -4.11512913778774   -3.97473774254499   -1.62463945178194
H          -4.97321625004296   -1.03761644293453   -1.62047980592397
H          -5.95711109667321   -3.33180141062658   -3.39814605925427
H          -4.97179077306005   -0.50905265040776   -4.08752475549264
H          -5.32945988646556   -1.79926354609955   -5.23537217096344
H          -2.73254901494229   -1.79285871168153  -10.00658891777310
H          -3.07427021107398   -4.68819676089912   -7.85367631588554
H          -4.65561132569654    0.99579555901979   -8.66642057519490
H          -4.50989136424837    1.40778658351169   -6.81081558389224
H          -2.67686441426979    0.40951915547635   -4.59492948782625
H          -1.68060208345760    2.22239351884095   -3.30772278739020
H          -1.93681837583331    7.15426730236776   -1.24469779952654
H          -3.51802355908134    6.35097483476455   -1.42435186698369
H          -2.66832391869698    6.98753374725808   -2.86171444689997
H          -6.29684098758184    4.19707075809978   -5.43916839127096
H          -6.31509586965332    1.14554708998720   -5.19682254959768
H          -7.61513800886006    2.23031743125993   -5.88571942419363
