83
 SCF done       -131.388996501393          0.000475074140
C          -0.78667621100751   -0.32332941668967   -0.11991990093647
C          -0.61934160199669    1.04786273243688    0.11073022429952
C           0.32134093257962    1.31811788171113    1.06857827151739
S           0.78548116204082    2.91351359156120    1.60456264060919
C           2.05387290239044    2.51200137034430    2.83783806463385
S           1.01570803488082   -0.13822688897744    1.70362538868616
C           0.02087535524712   -1.12234554768477    0.65577422247501
C           0.15358939051986   -2.53764324506793    0.71593179243375
C          -0.53670414059370   -3.41508303264273   -0.04641095261451
C          -0.38951379703365   -4.82873707129998    0.01679762697910
N          -1.10793015544240   -5.65886057765986   -0.79531127688876
C          -0.77964125718494   -6.96183248805303   -0.54722305736460
C           0.18114352003335   -6.96384361376027    0.46305616275040
C           0.42134862457907   -5.64047450852086    0.81111868692423
C          -1.34636802434663   -8.02549967732930   -1.23004484337309
C          -1.82811895464841   -8.97111408132316   -1.82499575552289
C          -2.36794168890625  -10.04206059571119   -2.50179588637590
S          -3.58233286145589   -9.84543978507091   -3.72075123124786
C          -3.69958247794976  -11.56311201001730   -4.01965770628539
C          -2.79156451459111  -12.25884130612852   -3.20602710660831
C          -2.05119137191284  -11.39400063862280   -2.34137124850467
C          -1.10632755388580  -11.92404577025890   -1.44264740180453
C          -0.90174925121245  -13.27035161956532   -1.40535285516452
S           0.28232579938091  -13.95733286744727   -0.26699564887313
C          -0.87286530875257  -14.54775110799317    1.02725069815565
C          -1.56504836108225  -13.40240444173825    1.73750380097988
C          -1.59223342851501  -14.14065974836268   -2.29300778463531
S          -1.13347252473254  -15.83810634773103   -2.16989562920702
C          -2.25284044087988  -16.70808735824108   -3.31949958960407
C          -3.66029104535655  -16.84903165298809   -2.76915132136799
C          -2.51160124587064  -13.64017962004191   -3.17653385677734
C          -4.66032439607408  -11.95744197115029   -4.98235863518973
C          -5.09908572183839  -13.20530088349008   -5.28501486320044
C          -6.07222047135608  -13.51002723294553   -6.27473399825119
N          -6.71375579968632  -12.59265387880106   -7.05631619492265
C          -7.57701346381902  -13.22308804492759   -7.90598843361243
C          -7.48606712740428  -14.59021756345717   -7.66198175501675
C          -6.55240626651312  -14.76622103712869   -6.64682867570730
C          -8.37414939988725  -12.53822278589186   -8.81750192876703
C          -9.09396712277401  -12.00888373350338   -9.63742499760169
C          -9.90401854304747  -11.30610417102071  -10.53440947421854
C         -10.04704169091942   -9.89315103948412  -10.44538533342071
C         -10.88093677958047   -9.38439263315350  -11.39144791831877
S         -11.37576641164051   -7.73224208002050  -11.68741472706513
C         -10.52941220220791   -6.85972764786675  -10.33944026958834
S         -11.51733955477190  -10.62239172426981  -12.42758975028155
C         -10.63945563381956  -11.86249177103338  -11.56733102185555
C         -10.77324779651101  -13.22026738651308  -12.00983110910268
C         -10.16673194871379  -14.28374195200696  -11.48358500461767
H          -1.48390885527667   -0.71378686306134   -0.83870965075627
H          -1.16275719386040    1.82092367064351   -0.40127926089317
H           2.41356851039322    3.45896712895877    3.22682187518228
H           2.86370100361655    1.96730228674245    2.36124139539809
H           1.61130896736146    1.92007042841481    3.63379156901182
H           0.87121691090291   -2.91340685551858    1.43147061907358
H          -1.25471923824546   -3.04486430209934   -0.76659664324384
H          -1.77845976593246   -5.35907432431901   -1.48383591077298
H           0.64099207637492   -7.83741687087488    0.88124551908886
H           1.10937201591463   -5.30036518221855    1.55896164264560
H          -0.55303337645590  -11.26254682488307   -0.79431448295373
H          -0.24289163757848  -15.11588055144362    1.70968661357257
H          -1.58517441855671  -15.22047886514864    0.55155927618158
H          -0.83198158649005  -12.73735757736942    2.18779320687020
H          -2.21384345244316  -13.79015965053282    2.52074167175500
H          -2.17036341936041  -12.82674226285521    1.03922320953674
H          -1.78674088553593  -17.68659633032256   -3.43724617489427
H          -2.22700194323649  -16.19683681165164   -4.28144966373247
H          -3.64391853637965  -17.41595164030777   -1.84113288561464
H          -4.28840267909448  -17.37523691806754   -3.48591081856487
H          -4.10392332404847  -15.87654780589623   -2.56508531981495
H          -3.00263378217225  -14.28510202716656   -3.88133370003389
H          -5.10332124837818  -11.11925449953103   -5.50916181149323
H          -4.72672163538088  -14.06621207300939   -4.75493052373345
H          -6.57747131666911  -11.59681949828246   -7.02040062902591
H          -8.04311382088479  -15.35235390722221   -8.17020284146639
H          -6.24580885590129  -15.70046653595322   -6.21836655204306
H          -9.54012707558345   -9.31256918087911   -9.69655858487414
H         -10.80940292730191   -5.81594118503188  -10.43997596504255
H          -9.45457395751289   -6.96865577703259  -10.44856463194369
H         -10.86912940632159   -7.24604268057757   -9.38319239323530
H         -11.43723820396150  -13.34709889518568  -12.85604771437212
H          -9.49778896520538  -14.20225464119041  -10.64595248815201
H         -10.32914715029892  -15.26741599769712  -11.88806838818065
