71
 SCF done       -118.058216900732          0.000857346776
C           1.07025301077166   -0.94372264884712   -1.73595752830924
C           1.46522814233680    0.40006822976317   -1.74724134330207
C           2.49033294173865    0.66317109470826   -0.87796086325030
S           3.22759502969963    2.22659508979328   -0.63193812218606
C           4.51342241567351    1.82007078185440    0.58204358088539
S           2.97902009337922   -0.76402672590728   -0.02321091421204
C           1.78425578224713   -1.72763332365094   -0.85980600037492
C           1.69182145883338   -3.11630447289761   -0.56025728937801
C           0.83826858387784   -3.98176421399287   -1.14975800350746
C           0.75197807402383   -5.36913779521013   -0.83949169396496
N          -0.11674041529689   -6.19298781896294   -1.49560539688915
C          -0.00953296635884   -7.46795962345114   -1.01662840439002
C           0.96017029170090   -7.45839303964900   -0.01836345941374
C           1.43221018176358   -6.15446043556912    0.08992980568057
C          -0.77017780683351   -8.51998221355034   -1.50874337502521
C          -1.42114252699158   -9.45445598764805   -1.92964674487070
C          -2.17216019069195  -10.50039969521124   -2.43824926080406
S          -3.20297462675356  -10.27382275526784   -3.82700939730045
C          -3.70109725295371  -11.95004339637923   -3.78601931391901
C          -3.08377236197177  -12.62109866942346   -2.75034347026217
C          -2.22783762072855  -11.80145790308175   -1.98841486792843
C          -1.43128105660270  -12.29281412873326   -0.82072011934583
C          -1.98584853845398  -13.63308670179935   -0.31897719925217
C          -1.07713558405948  -14.19796101684388    0.65231623467323
N          -0.33077329014273  -14.63072225379580    1.40119791219469
C          -2.16233943068849  -14.59159376936680   -1.51641030642879
C          -2.50723915772721  -15.91843493797230   -1.05881184345156
N          -2.81837604530826  -16.95704275154496   -0.69943708856768
C          -3.27432471667425  -14.07367520200498   -2.44179176441311
C          -4.63125602497970  -12.41775348683829   -4.76346821217437
N          -4.93428089826819  -11.66430036742081   -5.86220174311854
C          -5.84599538822761  -12.31380372260258   -6.64010288553569
C          -6.14350899957900  -13.51604907127894   -6.02001399326090
C          -5.38672778540214  -13.58189339201975   -4.84825867722896
C          -6.32798615953667  -11.77131787270874   -7.83502130262862
C          -6.73555974664498  -11.28994749582111   -8.86737863080981
C          -7.20265121148124  -10.73199012637904  -10.06899506275395
C          -6.58910027644451  -10.96072048113248  -11.32484584374527
C          -7.21655221677221  -10.30596539389897  -12.34243985798243
S          -6.73087443639250  -10.35535376576348  -14.02023116441420
C          -7.99331603207572   -9.29828137180094  -14.78243682583058
S          -8.58383601815976   -9.38944644223540  -11.78161473196413
C          -8.30357085303196   -9.89745472809271  -10.14060936509256
C          -9.13723211150203   -9.47429718930295   -9.05535144493389
C         -10.18684357428749   -8.66275660239480   -9.16783740642329
H           0.27918403224358   -1.32519873384734   -2.35572318547482
H           1.02234090837848    1.15856288465499   -2.36659542052102
H           5.03689643371207    2.74631881258732    0.79580807979345
H           5.19574122608439    1.09001465033681    0.15603968967579
H           4.05061021487124    1.43039328707899    1.48444829349008
H           2.36980200072276   -3.48035997542200    0.19874236669300
H           0.16207174131119   -3.62508406352679   -1.91599877911802
H          -0.74529726503120   -5.90793745161391   -2.22859705803189
H           1.27474443367768   -8.30978233592619    0.55232474485625
H           2.18646225750458   -5.81239320805962    0.76978384927329
H          -1.44634617814628  -11.55036748499827   -0.01822819618527
H          -0.38375620462185  -12.42060121234753   -1.11861151270787
H          -2.95893104403577  -13.48114733434325    0.16493438825931
H          -1.21426450946715  -14.65156842683578   -2.06576733230691
H          -4.24537040142798  -14.22224698392235   -1.95535155098040
H          -3.27679893814267  -14.65394953882526   -3.36785441226332
H          -4.53531854826538  -10.76340253585537   -6.07092645838191
H          -6.83175643260136  -14.25412116293054   -6.38075846554709
H          -5.41556910677336  -14.38165614852163   -4.13742512508198
H          -5.72396602118414  -11.58262869241051  -11.46361840129408
H          -7.76796457061686   -9.27177849443908  -15.84358142598719
H          -7.93529479512200   -8.29920824603796  -14.35979623995458
H          -8.97692230673216   -9.72851939452183  -14.61662777126414
H          -8.84834155258618   -9.87595613074127   -8.09182716011278
H         -10.48748606430689   -8.25885166215160  -10.12111601132205
H         -10.77726999456968   -8.38187262309139   -8.31445352028016
