68
 SCF done       -118.357529631541          0.000373851600
C           6.44043826660016   -0.80348336228253   -7.81631796398956
C           5.70862614702356   -0.83729349196832   -6.70338472140214
C           5.12368526397054    0.30168693470017   -6.06517688628536
S           5.30756844814304    1.91481284883323   -6.69365153014518
C           4.34621801576129    2.57192619617457   -5.40103928092237
S           4.00339956050236    4.27888343342420   -5.24909379771605
C           4.82576519234106    4.93520184643942   -6.72756931032428
C           3.91479733094093    1.60628246446833   -4.54302537584530
C           4.35377854283378    0.30969079928118   -4.91281220698880
C           4.04126104459198   -0.84303655781013   -4.18539127395972
C           3.76295421140979   -1.83163593127343   -3.54250854144851
C           3.44929064456271   -2.96980905074970   -2.80594444088798
C           2.58085133369534   -3.12303722247849   -1.73075469307626
C           2.62060322029643   -4.46030634871600   -1.34584713150811
C           3.51570027471893   -5.11498386454412   -2.18868911265194
C           3.91224387249545   -6.47732623865093   -2.20173634126217
S           5.09319004952060   -7.07649807046183   -3.35313392528060
C           5.01970283044237   -8.70585466787599   -2.72586008203209
C           5.78496193634076   -9.72212368655820   -3.25033889884839
C           6.46465344354602  -10.61790070604864   -3.71541717188676
C           7.23454537359987  -11.64811727809522   -4.22885724361685
C           8.17573298044620  -11.63023546198120   -5.25735235934483
C           8.67394464575211  -12.92053643783463   -5.38788115882119
C           8.04026907677979  -13.72806608987606   -4.44238922961553
C           8.16791361814205  -15.11335752069344   -4.14370596409804
C           9.00954554904085  -15.96185298852753   -4.77541217332774
C           9.13901068845559  -17.34844575018716   -4.48348440405082
C           8.49229375716861  -18.14006648284350   -3.56251963441571
C           8.89951216328600  -19.47960251577755   -3.57923201630146
C           9.86656073993673  -19.73279951143023   -4.51563726151534
S          10.60192122393699  -21.28835632925589   -4.80851341243079
C          11.75038069944791  -20.88448948579343   -6.15358980598007
S          10.28757481888613  -18.29947568638679   -5.39569068819304
N           7.17330333358673  -12.92853005787577   -3.75481324492716
C           4.11308588163657   -8.76823149036718   -1.67257838163154
C           3.65696868885177   -9.79136045175193   -0.81225200884005
C           2.73843442274733   -9.33359046169617    0.08568437033562
C           2.04277825749956  -10.07823198953905    1.12926414919861
O           1.24096201032447   -9.60262317030136    1.89581713588360
O           2.40220382078392  -11.37737183898526    1.13933915116700
C           1.76952463809115  -12.17411543297143    2.12883585588920
S           2.37881577471418   -7.62399949733483   -0.06935435111792
C           3.50253716200391   -7.51264548338530   -1.39111127065733
N           4.00329678936217   -4.19070522649854   -3.06595118678552
H           6.85216788755636   -1.69729165477245   -8.24927579114195
H           6.64716863311047    0.12351815217603   -8.32586498395609
H           5.50878401536272   -1.77690320395870   -6.20289809739488
H           4.65776190318921    6.00724808946828   -6.71882269382303
H           4.38513809377227    4.49176459269434   -7.61602232487611
H           5.88952994702731    4.72010546071036   -6.67868417918799
H           3.30833681271018    1.80696132448616   -3.67922486108446
H           1.99278598011972   -2.34317041668495   -1.28977372852098
H           2.06948848719450   -4.91592406399952   -0.54799612423894
H           8.45116420164046  -10.76763305995955   -5.83112652839459
H           9.41525189622721  -13.24194647155109   -6.09174087498982
H           7.53372003251167  -15.48636706764939   -3.34992459471749
H           9.64329553659915  -15.58458268909442   -5.56543420419813
H           7.74106369623053  -17.76671366690386   -2.89071173067664
H           8.50545409583780  -20.24268166813744   -2.93318300280299
H          12.25916793659248  -21.80819777616045   -6.40919924688659
H          12.46510710026306  -20.14204911911581   -5.81005323951895
H          11.19219800058653  -20.51171408635089   -7.00771194618988
H           6.57434219862296  -13.23372468895383   -3.00537376894539
H           3.98782938230534  -10.81269576977972   -0.85135172335149
H           2.13934599843245  -13.18610202293163    1.98526967491148
H           0.68471442229670  -12.13977951299538    2.00798894758880
H           2.02189698425716  -11.81093432583733    3.12740291455639
H           4.67445101327910   -4.38083503931317   -3.79216007252395
