118
 SCF done       -195.205910762543          0.000586455799
C          -0.25891483130728   -1.12378480242463   -5.39284331635098
S          -1.47073229942799   -0.42170891470860   -4.40949618767371
C          -1.46793114362665    1.01354111350365   -5.31806689978414
C          -0.55771819362001    0.96106944461138   -6.34765188598151
C           0.14994642269698   -0.29504039571201   -6.40978003217430
C           1.12948463013599   -0.49124623934224   -7.44914995334500
C           1.37310171578001    0.59161171057078   -8.28410992428153
C           0.69859325477826    1.81247446956132   -8.21183375814309
C          -0.28259776456590    2.01593568147653   -7.26906743303706
O          -1.02149698474584    3.13191420728123   -7.11414963246332
C          -0.79948383585641    4.21706183136488   -7.98744673324092
C           1.83675353031016   -1.69430975806333   -7.74091644771003
C           1.67871738692368   -2.94273044493748   -7.22478817814167
C           2.42387230346633   -4.04111064744347   -7.71280553745383
N           3.43004119660747   -3.88739193854131   -8.57680044831437
C           3.96419765423067   -5.10323550553903   -8.74892987345074
C           3.26542114384662   -6.11111628447876   -7.93841529762164
C           3.84886190378447   -7.44034715416882   -8.14031664266584
O           3.49965709891854   -8.49759270884353   -7.64736669003158
C           4.93746988851624   -7.17240532895771   -9.09122768193523
C           4.97446844952167   -5.74101896703932   -9.44039804526072
N           5.96304758703954   -5.48964225723121  -10.32766200590242
C           6.52980135085819   -6.65667877047764  -10.54907703125987
C           5.93779523021316   -7.74688191530764   -9.81655985955004
C           2.25296206886979   -5.45427978554881   -7.29102887945359
C           1.29900774867079   -6.02486284404404   -6.39507648091753
C           0.05571909336015   -5.55604523978516   -6.16231896179684
C          -0.90514329227296   -6.08824111311735   -5.23252781625987
C          -2.09551128400721   -5.41114175433815   -5.07243271559528
C          -3.06689533919777   -5.86655572640181   -4.16321923385088
C          -4.32829917982037   -5.38940857959566   -3.82874252187072
C          -5.03177407250404   -4.16655107790710   -4.31404222198574
C          -4.20669197197618   -2.89596311424782   -4.05718602953725
N          -3.83547609444571   -2.82540241328273   -2.65558661324881
C          -5.39777670788678   -4.29633723690861   -5.81459684643272
N          -6.33226668516957   -5.35809598017498   -6.11472945085459
C          -4.90447371385045   -6.34559391655422   -2.91708726410793
C          -6.13889463769792   -6.44070830821319   -2.38663118675657
C          -6.53770791022173   -7.63965751499504   -1.59424864808442
C          -5.40259303465963   -8.50557201465007   -1.15897928149113
C          -4.17363374947562   -8.40243472036724   -1.69884717039423
C          -3.89727154230765   -7.38265321076380   -2.64145092868038
C          -2.79573755455183   -7.09097616847775   -3.41662033610313
C          -1.56803856557399   -7.76929990191397   -3.60125607068705
C          -0.65475024333590   -7.27881936392540   -4.47339627246695
C          -7.42690889208893   -8.39585251679961   -2.56451427487514
C          -6.95182001485821   -9.27615102790581   -3.45525456208932
C          -7.80117635075106  -10.03168999446828   -4.32346742145333
N          -9.11913812210297   -9.92159694997558   -4.28952520153555
C          -9.59256456254766  -10.91821218797544   -5.06915842398998
C          -8.50047423088010  -11.73736471958139   -5.60133449617767
C          -9.02555214732995  -12.83808588461833   -6.41946048194164
O          -8.41798965728914  -13.71520649245626   -6.99443404031380
C         -10.48596992801707  -12.60781760420427   -6.36004137936752
C         -10.78566592274207  -11.43030226100606   -5.52490150871140
N         -12.12105884246176  -11.19783366365571   -5.48324220638791
C         -12.65281566544712  -12.13336211587561   -6.23422082406438
C         -11.68917573161777  -13.03991802181081   -6.82007917765496
C          -7.33478999732535  -11.14276097625249   -5.18491666632152
C          -5.99114052537331  -11.53641564525598   -5.44091415960729
C          -4.94321529997017  -10.68829156159348   -5.59939111771002
C          -3.60664090483490  -11.11303579356480   -5.80200946347503
S          -3.19984223309661  -12.77153090640327   -5.44772205497686
C          -1.58596572612638  -12.55960893431564   -5.91892668013717
C          -1.33333877963030  -11.27821266079086   -6.35795650759387
C          -2.48136846942858  -10.41957824982113   -6.28076166671527
C          -2.36267752474140   -9.08702530957212   -6.75863559022743
C          -1.15308893426020   -8.70181561081407   -7.29573835013629
C          -0.02459314874480   -9.53140677136611   -7.35824085297011
C          -0.08871098993519  -10.81876251797305   -6.88588955610628
O           0.90937289107095  -11.72657301016357   -6.88660771549822
C           2.12824697015314  -11.38360609125248   -7.51575081911300
C          -3.45459258628310   -8.11308663951179   -6.70770919260889
C          -3.80612989293071   -7.35120343673158   -7.73296862826644
H           0.08848979192204   -2.09561906701012   -5.11406384811156
H          -2.11161486383788    1.83004438392337   -5.06293388476368
H           2.11775256062075    0.47891531372101   -9.05834730950964
H           0.95669316054044    2.58319652912405   -8.91991924425320
H          -1.50137300059325    4.99027912964981   -7.68057926033379
H          -0.99659036681021    3.93819737501084   -9.02662781371568
H           0.22226982714878    4.59713419267356   -7.89833315020774
H           2.57079353381306   -1.61819191969957   -8.53410730667778
H           0.97386602244769   -3.14796307680232   -6.44051713465599
H           7.36153117696361   -6.73373925763271  -11.22781506582908
H           6.24919798311153   -8.77216960051423   -9.85911980315622
H           1.63261532007516   -6.93855931632403   -5.92166060115516
H          -0.29604296772840   -4.70380104147166   -6.73070647262198
H          -2.28047605207638   -4.52462690818519   -5.66162447604467
H          -5.96919927945516   -4.06483262777751   -3.75261766526719
H          -4.79143193455263   -2.02420245792628   -4.40263743949732
H          -3.28320993425097   -2.92486468205486   -4.63708552888836
H          -4.66143783882354   -2.74030264432856   -2.07252709115989
H          -3.24615735768680   -2.01867801546155   -2.48476954676479
H          -4.48934089884664   -4.48293799158980   -6.39139090793904
H          -5.83734206222709   -3.35652677942646   -6.16036025808788
H          -7.22689071240733   -5.19165099982395   -5.66674636889866
H          -5.97834024169329   -6.24639247996784   -5.77488926178877
H          -6.91746387567221   -5.71779159355709   -2.58864797562279
H          -7.14630368136898   -7.34348306477738   -0.73352381416254
H          -5.64250796585269   -9.27940487652529   -0.44682050710337
H          -3.38159162726754   -9.07814568977101   -1.41043716128619
H          -1.37675171005243   -8.67916492837800   -3.05140155224657
H           0.27703677522867   -7.80075199664159   -4.61941859571088
H          -8.48658119677419   -8.18846568948667   -2.54147121448956
H          -5.89498740356288   -9.49951566737316   -3.49576485979066
H         -13.72006695527918  -12.18280557314774   -6.36527272388080
H         -11.91992277215481  -13.86410615232689   -7.46594296585249
H          -5.83704780670382  -12.59955679532393   -5.58063329458845
H          -5.13128382934869   -9.62641860583864   -5.63411212221275
H          -0.88934158496463  -13.37215956400255   -5.87418619917655
H          -1.05846914570933   -7.69340689272173   -7.67040967597103
H           0.88923314395671   -9.13518048729734   -7.77078643322147
H           2.77265613308588  -12.25266964600969   -7.39760132627096
H           2.59758289448960  -10.51253058595279   -7.05601117748959
H           1.97547756303381  -11.18453527752551   -8.58016744236252
H          -3.95429495799480   -8.00638485592492   -5.75369269581255
H          -3.32436652163325   -7.44951499750868   -8.69186317659825
H          -4.60102114763934   -6.62890400220124   -7.66640820040107
