112
 SCF done       -195.247922784229          0.000596943870
C           0.58641502123429    0.12712235183404    1.22500093676707
O          -0.62636830533859    0.61694574685768    0.85187174602093
C          -1.30150659951329   -0.43841484672996    0.36052604885624
C          -2.55133728589454   -0.80293569967429   -0.20070812940808
C          -3.74504577095367    0.05415299526491   -0.33996003145181
O          -4.87244981618121   -0.35858713704355   -0.52333475512940
N          -3.46453588024889    1.37303343118690   -0.21823766315266
C          -2.41622336050254   -2.16739767744063   -0.45326835199845
O          -1.19685618020389   -2.64091161827347   -0.06554925783441
C          -0.52154608700746   -1.58590668916714    0.42340047540777
C           0.71637808578340   -1.21201560407512    0.99031925546118
C          -3.34395955549883   -3.11774227963009   -0.99939458293371
C          -3.49171990109651   -4.40126582024218   -0.56884813910663
C          -4.62145752965448   -4.98672841457319   -1.26097335360734
C          -5.05195488538277   -6.30862617837572   -1.09725224434666
N          -5.40331618367691   -7.39284261115346   -0.95659709410228
C          -5.17836384514742   -4.04330633003033   -2.08419081306759
C          -4.38026567152252   -2.85296676901138   -2.00668360825569
C          -4.44958111391554   -1.77061885339917   -2.84929436679473
C          -5.60668733205155   -1.36108625623883   -3.67648922160745
C          -5.19085013517421   -0.33733044920115   -4.48075384112596
C          -3.80131350949325   -0.06706052065276   -4.20101693095898
C          -3.36747787587361   -0.90508691547347   -3.20343682735227
C          -3.03803639092313    0.91360800211230   -4.84575979611358
N          -2.42062102698910    1.72697862007448   -5.37157778207010
C          -6.93089216807828   -1.86132707898529   -3.51098596273332
C          -7.90396686836059   -1.76264509202575   -4.44617039974976
C          -9.23589517720303   -2.28866638023174   -4.33820793346602
C         -10.00645888754456   -2.39010071829186   -5.48421983453290
C         -11.27600567800845   -2.98432383001156   -5.43947756207459
C         -12.19690066697767   -3.26079812032135   -6.44932342701849
C         -12.03633685658762   -2.93273465150883   -7.89199660313007
C         -11.84727549478975   -4.20271804891690   -8.74339911751502
N         -10.62749047305738   -4.88434698469141   -8.34750070009615
C         -13.20235635136103   -2.08704241535445   -8.43501369469599
N         -12.88069627122313   -1.61420283307836   -9.77066477102538
C         -13.29219947230299   -3.96740716376070   -5.83036919705731
C         -14.39027054780157   -4.55996791020730   -6.34089514621431
C         -15.33144478542253   -5.33869598356524   -5.48873039108139
C         -15.05088354813067   -5.26161664641599   -4.02254204937669
C         -13.95072028504705   -4.66790533327534   -3.52201456238726
C         -13.01775087914813   -4.05230167397487   -4.38786555911485
C         -11.78709378293247   -3.46151729917841   -4.16562215294270
C         -11.00990163685723   -3.29545377685866   -2.99826575287289
C          -9.77568274371500   -2.73506212265607   -3.08849550476785
C         -16.76181115443423   -4.96014455028097   -5.78294376682830
C         -17.63268780196690   -5.79301748779740   -6.35427661681803
C         -19.01106546345289   -5.51581427692408   -6.67326018795339
C         -19.66832025478721   -6.06481101631846   -7.73250008770424
C         -20.98028098414339   -5.46055915863955   -7.83342765517803
C         -21.94199298695750   -5.80995277806492   -8.78792750060328
N         -22.72011634338642   -6.09850813160564   -9.58194234628173
C         -21.10895939983934   -4.51579520728437   -6.85038112119580
C         -19.91495902793937   -4.53402176286754   -6.05075932066435
C         -19.76978044320373   -3.91704917287435   -4.82793610943629
C         -20.56307460179910   -2.78924935289544   -4.29078794263346
C         -20.30956686851896   -2.71611949933048   -2.94874243438420
C         -19.34667820132147   -3.73106116398979   -2.60372237072743
C         -18.99054626239811   -4.41853097915561   -3.73910230876994
C         -18.85600441594824   -3.96676418671343   -1.31388348282104
N         -18.44463293130783   -4.15671043394122   -0.25854390578240
C         -21.33798518962138   -1.84107155951627   -5.02073766600334
C         -21.20636814046337   -1.54952765031116   -6.33537766563167
C         -22.01676331824893   -0.60586981739822   -7.02681746374279
O         -23.04730115690404    0.02416937050171   -6.36895930014803
C         -23.62735382114108    0.82123893848457   -7.28052856447304
C         -24.68249963450329    1.75320592404625   -7.44458864265999
C         -25.67973867553522    2.23695107398881   -6.46717251809044
O         -26.52389867276406    3.06408015103452   -6.73210785371224
N         -25.55619741315848    1.66660098439488   -5.24531361531642
C         -24.58262742862872    2.12790145998160   -8.76649974357940
O         -23.57422857567486    1.51671981180163   -9.41926834806674
C         -22.98515616943829    0.71363474331449   -8.51288941791899
C         -21.94127180594086   -0.21057128404770   -8.35413593001863
H           1.27525911030881    0.83233029652328    1.64458774680861
H          -2.54115667791056    1.70643063413956   -0.00507944424722
H          -4.22515401577465    2.03062095833056   -0.24948483400370
H           1.56930494063253   -1.82306918058616    1.19579463706886
H          -2.90800800584353   -4.90227382607218    0.18012076562005
H          -5.98669016229687   -4.21066617642787   -2.76978892003407
H          -5.78304857306756    0.22992603845896   -5.17383799821775
H          -2.36387961268343   -0.97286980757418   -2.83150938387121
H          -7.13125282805223   -2.34782286468772   -2.56861370049076
H          -7.65521020958561   -1.31819748989531   -5.40172780330548
H          -9.60518929476097   -2.04222035963309   -6.42532392914722
H         -11.12530884447477   -2.33434600134934   -8.00361956896345
H         -11.86582965425280   -3.89353345604250   -9.80009964131308
H         -12.67724144765851   -4.89088111244879   -8.57118505000111
H          -9.81645930328635   -4.31526879284667   -8.56605760465505
H         -10.53273656848729   -5.76133170878536   -8.84630811728741
H         -13.40487855242735   -1.27286168709019   -7.71820909234399
H         -14.10500565030111   -2.69607931659703   -8.51252177058668
H         -12.09742160273115   -0.96959517624809   -9.73827387873689
H         -13.66918801531245   -1.12140951930408  -10.17400736460626
H         -14.62695830498385   -4.53296263075841   -7.39475821127762
H         -15.21146558924089   -6.39357493157017   -5.79021444476952
H         -15.77110738150384   -5.73589807981209   -3.37334832730094
H         -13.76686557990882   -4.65835570315438   -2.45786334541371
H         -11.39960728027081   -3.62421254792905   -2.04635052404518
H          -9.18372139502035   -2.60461266911377   -2.19644409434986
H         -17.04392823287261   -3.95914786848267   -5.49063432287413
H         -17.28934055104367   -6.76760386762691   -6.68485419386284
H         -19.29272757443507   -6.80650612029978   -8.41303178440055
H         -21.99579712007052   -3.95596226133608   -6.62706253185562
H         -20.71374328798122   -2.00336900803916   -2.25437268774401
H         -18.35166562159377   -5.27847014133051   -3.77915587025848
H         -22.04316067012321   -1.26506188386916   -4.43479225222788
H         -20.45135859167570   -2.03099787123675   -6.93893437553288
H         -24.85559518656488    0.97388068265560   -5.05058000307517
H         -26.20133704104914    1.93160436840116   -4.52056881685561
H         -25.18729298607734    2.81898706607794   -9.31923073415463
H         -21.23416178386579   -0.55632738612187   -9.07814598979076
