96
 SCF done       -176.435805463010          0.000622462997
C           1.69598401557147   -3.40246923132776   -1.19693219743872
O           1.08495059138073   -4.09626986526363   -0.19896418101272
C          -0.23649633773741   -3.93270629530170   -0.40740682015699
C          -1.49889208177506   -4.28774795824840    0.12163284866794
C          -1.70277282345324   -5.12210822473882    1.32459165713456
O          -2.77759571424476   -5.47302529373310    1.76540114472507
N          -0.54003075211004   -5.47926526890106    1.91862601318287
C          -2.40883123439977   -3.65893188254327   -0.74580676538564
O          -1.76108159190649   -2.97447387985475   -1.73348256760527
C          -0.45338061178202   -3.13980314168078   -1.52984373659559
C           0.81468269686881   -2.79515998218440   -2.04490133104514
C          -3.82872507547909   -3.57690522495258   -0.78441234548251
C          -4.79774706460764   -4.33336939456915    0.01989096417012
N          -6.03858071544138   -4.04559125953141   -0.24057891424492
C          -6.00452230957177   -3.09518861390360   -1.21430488616628
C          -4.61708499570039   -2.78749641358693   -1.59893843033394
C          -4.60899543784499   -1.74090651624650   -2.59393772190067
S          -3.30058651685689   -0.99596847146992   -3.25902689930823
C          -6.00294713973475   -1.43645635005122   -2.81479366297400
C          -6.83406913964584   -2.28137421404212   -1.93972497256629
N          -8.15384517255089   -1.97089075880442   -2.07666246833602
C          -8.18791646826515   -0.98462239955648   -2.92538902761800
C          -6.88008232980450   -0.57599054130624   -3.44119198559760
C          -6.67772617001160    0.48575892051699   -4.38930899037557
C          -7.55696976451583    1.55013333144539   -4.42864048154043
C          -7.32635041746158    2.61726256117014   -5.31218255984983
C          -8.02500255496499    3.80606798378667   -5.50968496483298
C          -9.24746812673229    4.23732121451013   -4.77943003437923
C          -8.97063567702696    5.46544061342274   -3.89162936596902
N          -7.97237856962256    5.13436532095365   -2.88958748054403
C         -10.43212308710559    4.51201515529414   -5.72464517366516
N         -11.64013856019010    4.71152939612823   -4.94344837045615
C          -7.31187876634447    4.53990508804445   -6.52784273004533
C          -7.50439062283342    5.76213058415282   -7.06025694935135
C          -6.59171204955870    6.32209079911914   -8.09764377255835
C          -5.48180310568571    5.41470173649885   -8.51017182865055
C          -5.28983982848380    4.20036963935265   -7.95977706579841
C          -6.16251103632118    3.72596177008013   -6.95339427176582
C          -6.17810979821594    2.56468109867462   -6.20304357499860
C          -5.31704849837452    1.44571118429904   -6.16561809983195
C          -5.55969221701647    0.44441424451040   -5.28055202242988
C          -7.43207052086518    6.73097061785014   -9.28329116773797
C          -7.88270937863224    7.97695512659569   -9.45661984902055
C          -8.71899758114351    8.41723003449958  -10.53040428475573
C          -9.11305171800729    7.69835460623198  -11.74221211671397
N          -9.89372069859238    8.37429171420069  -12.53993121419932
C         -10.08354353857171    9.57967136925062  -11.93060497460329
C          -9.34719913509503    9.63356989068954  -10.66019245790946
C          -9.56173960107843   10.90200351955186  -10.01039034418401
S          -8.93611820520170   11.38016842742083   -8.56557562964498
C         -10.43446062170410   11.61301458001371  -10.90783121884442
C         -10.73634047783960   10.77813619755331  -12.08206108996516
N         -11.56736777357395   11.43624619395041  -12.94041519028895
C         -11.79819103424015   12.59230883218376  -12.38910597969102
C         -11.12735205014473   12.78946797135532  -11.10368965113145
C         -11.21280156587180   13.94091809591265  -10.28175252272620
O         -10.51144371153284   13.93446758342174   -9.10614942236146
C         -10.75993179895550   15.10740451522555   -8.52268786208065
C         -10.45731664771765   15.86348291705945   -7.36537467998481
C          -9.59290013681978   15.50467207941437   -6.21719404833465
O          -9.40937032318723   16.24509482154439   -5.27448384339865
N          -9.03524747791489   14.28065858521828   -6.32625761241104
C         -11.16060667041165   17.03278486154185   -7.55042481678816
O         -11.85970245749601   17.06162400188062   -8.70476473322388
C         -11.61833382691357   15.88068860087707   -9.30817726295923
C         -11.91609666448148   15.12865167795160  -10.45241200402366
H           2.76758227006194   -3.41572066570737   -1.19543771429535
H           0.36008379424571   -5.20755095812170    1.56575984166731
H          -0.59098497255045   -6.05354795610672    2.74305664194649
H           1.04519912233902   -2.19547313526087   -2.89928523462250
H          -4.53266384578739   -5.06145503314593    0.76451966335154
H          -9.13208796494400   -0.56597352119186   -3.22844669202499
H          -8.39167761645096    1.58798035523377   -3.74496053296230
H          -9.55033997415942    3.42266438018155   -4.11225515942996
H          -9.93626335567460    5.78995847632102   -3.47389927884368
H          -8.56778750974644    6.27886163395255   -4.49811164011361
H          -8.33333692590703    4.43801124310370   -2.24572187715962
H          -7.72777258581368    5.95620346921504   -2.34936314406108
H         -10.50600721188468    3.67698464170575   -6.44244607986069
H         -10.25483582800891    5.42667007281316   -6.29340176126855
H         -11.91064011726854    3.84983570137141   -4.48059595507107
H         -12.40831225285024    4.99734826633294   -5.53938629225348
H          -8.32648974106581    6.40025148660340   -6.77064166549827
H          -6.15449523506815    7.24141991236178   -7.67751875010481
H          -4.82967207758923    5.78925902060067   -9.28455004530754
H          -4.46626915117381    3.57629503082687   -8.27447152729279
H          -4.47154739756876    1.39724427428265   -6.83516726489905
H          -4.91044924748241   -0.41475598689759   -5.23701208305463
H          -7.68593165736603    5.93596022365712   -9.96878868635426
H          -7.63406525205872    8.74588079461565   -8.73459727204338
H          -8.80589127150814    6.70182305062043  -12.00666027000194
H         -12.43499153910327   13.31203861551745  -12.87143740870272
H          -9.19149632548137   13.67206428087555   -7.11347560580917
H          -8.43044835254219   13.96161218627172   -5.58824217003932
H         -11.22069968076909   17.89343554062056   -6.91419107272586
H         -12.53985942069214   15.38644831755087  -11.28194296276842
