108
 SCF done       -192.977974761670          0.000432462701
C           0.20607103601442   -2.51796163312298    5.23809982353617
S           1.26180010987760   -2.72563556201775    3.90634502881663
C           0.24421727932459   -3.94198764976059    3.17436787103291
C          -0.86451211708796   -4.14066559178682    3.98254959460072
C          -0.89704226403586   -3.33376923458316    5.15716188709331
C          -2.06841897446074   -3.59308562636784    5.92031743318119
C          -2.84753550290661   -4.53933681774122    5.32936411867962
C          -4.12714235356507   -5.03638115270184    5.84871962586971
O          -4.64315505312110   -4.66201592119164    6.87274855973464
O          -4.64778726441797   -5.95976861987089    5.03372780695704
C          -5.89119112987293   -6.51833092069270    5.42810015239270
S          -2.21125656630564   -5.17975806639682    3.81321345337081
C           0.41951542180448   -4.65208742525602    1.97210014808376
N          -0.52634051130205   -5.54522574770867    1.66756384369769
C          -0.16192849479802   -6.07488466008500    0.49010462668760
C           1.09127455790365   -5.48416107130377    0.00393364383975
C           1.45696474386553   -6.06652396131164   -1.29011782182834
O           2.41460698276760   -5.80466058608859   -1.99758015988239
C           0.37954856256331   -7.03570588302017   -1.53476429673353
C          -0.59189826445785   -7.00904522036940   -0.42934697530252
N          -1.59277889104377   -7.89169946092914   -0.64785836191708
C          -1.30595537358984   -8.45560497354616   -1.80092211801690
C          -0.09089998046079   -7.96913478162496   -2.40785889139838
C           1.48273447219312   -4.56600885495974    0.95354577975384
C           2.60250651644928   -3.69387890454499    1.01516065712919
C           3.53457568440147   -3.61225142578614    0.03660059623068
C           4.66134728716555   -2.72297720821552    0.00267805864042
C           5.43022897491694   -2.67870856584356   -1.14639108889007
C           6.49887418928847   -1.77426868389864   -1.24999994811376
C           7.37434299945246   -1.51189286860020   -2.30167568397751
C           7.38005655071460   -2.18930078120509   -3.62247408005968
C           6.86660738591788   -1.25541902436690   -4.73348494824928
N           5.48314684520688   -0.89438620434702   -4.47733902514628
C           8.75453227965006   -2.76787637248920   -4.00427425164076
N           8.56638772285217   -3.76390375449009   -5.04180586763506
C           8.26579349869969   -0.47137098605136   -1.85069282540656
C           9.28480769438317    0.16653269915242   -2.45852092458342
C          10.14543294067426    1.11564569109817   -1.71204432881952
C           9.61077308416761    1.54944344039491   -0.38197871617036
C           8.56858663042609    0.91968768956185    0.20494248500312
C           7.88830872929107   -0.11264476465519   -0.47167505825494
C           6.80901250986024   -0.90779824854115   -0.12469553466227
C           6.03359637665889   -0.99577610307113    1.05209198326298
C           4.99449140453714   -1.86877935336865    1.10540465982892
C          11.40015168640834    0.41780161251497   -1.23959079839275
C          11.46064828306186   -0.87300028162340   -0.86560663743320
C          12.66018977319745   -1.43883665103618   -0.34921897873469
N          13.77872922122852   -0.72827927920896   -0.25834813346543
C          14.69222023116460   -1.54653079125496    0.29077417578784
C          14.12311757410575   -2.86920520615673    0.58453112002783
C          15.14132422174117   -3.73672791038324    1.19564572578089
O          15.02506243195474   -4.88017707981091    1.59145721565120
C          16.33338383274457   -2.87393635210247    1.22136601769962
C          16.01716449364740   -1.54556066834638    0.66830603186805
N          17.10876395961107   -0.74551647840707    0.68640613799942
C          18.06506910214985   -1.48484386865430    1.20291579542162
C          17.65117069459425   -2.82239884729202    1.55609331774770
C          12.81440895871245   -2.82190506472140    0.15964122616002
C          11.79967352764065   -3.81903792840821    0.18237714925605
C          11.98978155560990   -5.01924366674046    0.78556907122904
C          11.07022095881375   -6.09257669117406    0.87187038974958
S          11.47283347964325   -7.39083744560816    1.96725254457458
C          10.05025653742091   -8.27553980178720    1.59965948434699
C           9.30427639897001   -7.61867672760330    0.66846581318096
C           9.85911275112674   -6.37013902664504    0.23630830720672
C           9.05890680533872   -5.77989974384237   -0.76988882710136
C           7.96306461370012   -6.53416872534455   -1.07720173231640
C           6.97116604695428   -6.26634914902266   -2.11657359371026
O           6.99704169724834   -5.30293875541599   -2.85161008640890
O           6.06488870430080   -7.23909877595325   -2.17391926672859
C           5.05228499024818   -7.14491803523897   -3.16930636674169
S           7.81934044967676   -8.00761452723198   -0.14588876689376
H           0.45572235895434   -1.80829646299626    6.00179409759084
H          -2.32251256573633   -3.11076628999158    6.84625687890134
H          -6.16733480993238   -7.22212562737397    4.64758145945089
H          -6.64498526234720   -5.73422290747024    5.52526073482918
H          -5.78970082292570   -7.02823819377225    6.38841181522514
H          -1.95553608950278   -9.20899452788200   -2.21163862430065
H           0.31612254685953   -8.29804449750520   -3.34391384352926
H           2.66859780286452   -3.06815901976154    1.89388643283821
H           3.41787006143347   -4.24932812687749   -0.83072838222197
H           5.19699741339126   -3.33370502910666   -1.97198578430900
H           6.69600055443951   -3.03993838943714   -3.56507523218003
H           7.02236476990734   -1.77671535694571   -5.69079818343567
H           7.45071129700977   -0.33079528650661   -4.74174131650226
H           4.89700823564891   -1.72242968243255   -4.50207605913436
H           5.14648562537750   -0.25547100961794   -5.18882807407252
H           9.22944956605873   -3.17267645981663   -3.09344673966141
H           9.40814273632962   -1.98894441006197   -4.40566673193364
H           7.99383761929740   -4.51546727802013   -4.66847360727620
H           9.45838556024834   -4.16162503446838   -5.31695098768235
H           9.57252233375739   -0.04289821689604   -3.47756641903176
H          10.42059718760973    1.96959985304760   -2.33766362929053
H          10.14676315480801    2.34017049517123    0.11791878120985
H           8.22786607557845    1.22071923542908    1.18498556738076
H           6.27104128502074   -0.36543528242690    1.89665895330831
H           4.40243252774063   -1.93176656536074    2.00523040188753
H          12.28542300054374    1.02590217787869   -1.12440537439328
H          10.59136012611424   -1.51064364908331   -0.93903378494635
H          19.05366101712019   -1.07908127908820    1.33110161906760
H          18.27798650524086   -3.57792962842498    1.98720549552137
H          10.85327547252020   -3.58315227152602   -0.28227769185355
H          12.93647165556672   -5.19594107430102    1.28181851136914
H           9.85231216497670   -9.21333111715617    2.07682182303301
H           9.26889464927912   -4.85426757818645   -1.27343291186250
H           4.16701131813410   -6.66094667220979   -2.75247664896253
H           4.81498897694151   -8.16373927225516   -3.46854898465893
H           5.41731324104700   -6.56820654628131   -4.02117082690201
