90
 SCF done       -175.982719113921          0.000770812708
C          11.03309542824462   -9.09203701173407   11.67139767659926
S           9.50992415114766   -9.78658852886320   12.02897987590715
C           8.70045455553145   -8.73273417455455   10.90168116176971
C           9.61394624459277   -7.88838421583130   10.29023069622044
C          10.93838954290472   -8.10187187402003   10.73681029161657
S          12.38915681884765   -7.24457137587622   10.22301718723712
C          11.94708931831414   -6.03760013717246    9.01385805255016
O          12.83528498632874   -5.36437803212531    8.56819299932495
C          10.53245366114258   -5.81556567312974    8.52133653579031
O          10.32914211613442   -4.97813493263877    7.68491980141044
S           9.11613407698921   -6.70393948311595    9.09308572661652
C           7.29315995540502   -8.83616442441812   10.74055541446191
S           6.38770309503130   -7.82374114297848    9.65086184612992
C           4.89619140740998   -8.59985060402502   10.10311136387863
C           5.11728105771148   -9.58406653570427   11.04449533781840
C           6.45656874676892   -9.71549286924400   11.39959739938998
C           3.66666171693980   -8.19779466699330    9.52235719408325
C           3.45589919293792   -7.22888205662446    8.56403990402937
C           2.11782436716570   -7.08051098619608    8.20765596106596
C           1.26943649039269   -7.93276248316266    8.88788262679961
S           2.16146593140415   -8.93944595990068    9.99182106264857
C          -0.14040487491680   -8.04088140067955    8.76140946299278
S          -1.06483462131989   -9.14292633103552    9.73957151877647
C          -2.55544966608634   -8.66187424757575    8.97544121114800
C          -2.31187664155124   -7.69302092787242    8.01935419416450
C          -0.96933903489537   -7.34620729764911    7.90116673706720
C          -3.77375892947285   -9.26963724949272    9.37754038235233
C          -4.98114955632580   -9.03581804020562    8.80755270753271
C          -6.20096537517058   -9.64316327869817    9.20170841540758
N          -7.36847331944941   -9.38752994851422    8.50709084547469
C          -8.37867579938465  -10.09407393946508    9.07745952806622
C          -9.73761208875356  -10.38229578852914    8.99395092039297
C         -10.01095247298280  -11.26915526483406   10.04097861690235
N          -8.84704868997441  -11.51253146406375   10.74593988200695
C          -7.83494416730254  -10.81061074316899   10.17223512730669
C          -6.47374474867649  -10.53047566389074   10.24869733638883
C         -11.23090276691755  -11.88441667804666   10.42349239580741
C         -12.40620418602145  -11.75068780324646    9.76185594787891
C         -13.63156741645288  -12.35842784737325   10.14149624752738
S         -15.03918043137975  -12.13309872084855    9.13927509353566
C         -16.02071152846954  -13.10068331296167   10.20010234831783
C         -15.27203513896058  -13.55984867208699   11.26682595325856
C         -13.94266685055012  -13.14809527423717   11.23297888036613
C         -17.39509739317893  -13.33319308661508    9.93019944491916
C         -18.30778349388407  -14.03013688562979   10.69840697818418
C         -19.58524387801828  -14.06907655199646   10.14487621705015
C         -19.68348660924968  -13.40578782265233    8.93762693262830
S         -18.14808743461440  -12.71886858156264    8.48859534932699
C         -20.82873963212857  -13.25343544784839    8.11231087124041
S         -20.74403308529472  -12.42447135305156    6.58997626014867
C         -22.44189737867558  -12.68543936263582    6.29122872528658
C         -23.01322376287405  -13.38384242431457    7.33926326523494
C         -22.11568294459704  -13.70181445020700    8.35299629330117
C         -23.02257476659109  -12.19394746104845    5.09483213321388
C         -24.32943571492551  -12.29875657971257    4.75875159163825
C         -24.88044739166400  -11.79664328778502    3.55105263478556
S         -23.92194674821329  -11.00860441709015    2.33089169409031
C         -25.29281490693503  -10.76260419521938    1.33434200953821
C         -26.43583396912373  -11.25567639714068    1.89762350779501
C         -26.20974714496355  -11.84600773648259    3.15879956917679
S         -27.42161850907914  -12.58889899192269    4.19214754834120
C         -29.00313827573389  -12.43829622985589    3.42704989348041
O         -29.93827898249527  -12.88982379826840    4.03176350298883
C         -29.24588435271479  -11.79502816406462    2.07508979383850
O         -30.36702561785341  -11.74568551792610    1.64872552259481
S         -27.97594418322222  -11.11502208249807    1.05406584771538
H          11.91985065401481   -9.43916644194493   12.16013172202432
H           4.32164431884541  -10.18155654894289   11.45241588815920
H           6.82260998348580  -10.42850076355515   12.11723694737650
H           4.26079742997424   -6.65272641531366    8.14255729436865
H           1.77263435655477   -6.37190979391405    7.47753174640746
H          -3.08843837675987   -7.24532623364632    7.42622341254566
H          -0.60433251416073   -6.61104044859763    7.20701233922208
H          -3.70294240114272   -9.97509119581483   10.19258028268329
H          -5.04669497621267   -8.34390752167166    7.97797618996441
H          -7.43347908191940   -8.78481076860554    7.70522577817608
H         -10.44808202679422  -10.00940184917631    8.28490889278258
H          -8.78020038946379  -12.12467426774229   11.54046255319713
H          -5.76249722918129  -10.90238965089888   10.95755302762695
H         -11.19023957448550  -12.50569373932061   11.30864394542810
H         -12.44040508638910  -11.14378592444120    8.86881290988012
H         -15.68333435968825  -14.17827914636955   12.04405703168681
H         -13.22526435421899  -13.41520072906735   11.98754945142632
H         -18.05199255733398  -14.49263732373907   11.63408923833023
H         -20.41714944644480  -14.56781211804699   10.60781369317298
H         -24.05283667891405  -13.65569159588155    7.36366356240526
H         -22.38810800129258  -14.24077666706415    9.24206314593582
H         -22.34984861393642  -11.69418840066681    4.40863057477743
H         -25.03163208231480  -12.78343541532071    5.42194432998087
H         -25.19761737261008  -10.27124915209400    0.38814858781629
