106
 SCF done       -202.286588199335          0.000876416877
C           3.11470299211271    1.74619755640692    1.34763101791618
S           3.94798689608114    0.36720476602599    1.89854803070601
C           3.31243049037361   -0.61666093526208    0.60821759380377
C           2.49806511697039    0.14153661415964   -0.21585785784773
C           2.38669676515611    1.49572485833955    0.21194953597278
C           1.62972509859000    2.50086819982759   -0.42690481692829
N           1.02245324965168    3.33116575938904   -0.92987840020689
C           1.83903310779223   -0.35784545651851   -1.45653292083242
F           0.79526076677160   -1.17789034557960   -1.21179356323880
F           1.35502398613540    0.62293859282154   -2.22616601576768
F           2.67655371901707   -1.05708087547684   -2.24814033817526
C           3.71946425675490   -1.98515166682267    0.58280574893516
C           3.14461841437580   -3.01604857612147   -0.07630134647881
C           3.69343749413959   -4.33116460871279    0.01556804970102
N           4.60551023902309   -4.63233690898211    0.93081980224916
C           4.81054636815454   -5.96069765805230    0.82934939705125
C           3.95596624748062   -6.54834305024205   -0.20679102780457
C           4.18000408210294   -7.99800543239205   -0.31254681874980
O           3.64389412335201   -8.79374203395480   -1.05163529678644
C           5.22406206936287   -8.23065311613373    0.70748175108427
C           5.57675582931757   -6.96244474378072    1.38001708294136
N           6.55440240944896   -7.16148070469687    2.29641336797423
C           6.82915642195380   -8.44237754708610    2.23029581074980
C           6.04308514100525   -9.16674605766339    1.25157318134932
C           3.26646219171542   -5.50752000207412   -0.77532085860104
C           2.36628753916297   -5.56917320890003   -1.88137203685343
C           2.14115977813063   -4.55842026239402   -2.74675737825105
C           1.24335191553491   -4.56812714149096   -3.87186045324195
C           1.10913842895776   -3.40481184284200   -4.60541363771507
C           0.21466924043786   -3.33858451087846   -5.68699387350837
C          -0.12179527022829   -2.29637391116779   -6.54750112120939
C           0.35901155459525   -0.88758590952811   -6.53635401885896
C           0.09675446472970   -0.21798317866310   -5.17035822322356
N          -0.07357565749220    1.20653613373442   -5.36057986596919
C           1.84677655635806   -0.80660180032291   -6.92750045150581
N           2.25472219586151    0.58061727875784   -7.07949432637395
C          -1.10924228330609   -2.81563085120289   -7.46200987455360
C          -1.76287502908973   -2.23260917938378   -8.48453477422942
C          -2.81307339010580   -2.95619877686052   -9.24463401014379
C          -2.95544916959804   -4.40787500329985   -8.89622411930175
C          -2.28609688069250   -4.97637951101961   -7.87180891475556
C          -1.36079424422473   -4.22242092092439   -7.11802878302460
C          -0.54953188269915   -4.52726567171905   -6.03857888115221
C          -0.37865461941163   -5.71184859902651   -5.28829119782145
C           0.48417079366058   -5.72569402343682   -4.23916998527284
C          -4.17987894353059   -2.40279534831795   -8.93153184776720
C          -4.48919665020781   -1.76377498630567   -7.79219552790075
C          -5.81354626931299   -1.30613825953528   -7.52317085869026
N          -6.81116523257765   -1.50375914272571   -8.37228937930116
C          -7.89977915604361   -0.95758478723191   -7.79798103156799
C          -7.57683664269140   -0.37302700781599   -6.48685384138392
C          -8.77856191188810    0.22191656948880   -5.87655380426537
O          -8.87905695268754    0.78396516452136   -4.80790867491963
C          -9.81553842235525   -0.03835102010410   -6.88993786619808
C          -9.23787814533340   -0.76108990588224   -8.04312768513584
N         -10.18562960203280   -1.00053887747582   -8.98075786405054
C         -11.28760730759946   -0.48163492696334   -8.49298037174167
C         -11.12759179698499    0.13624719203388   -7.19325956648674
C          -6.23308682289242   -0.58089421725727   -6.29985956817627
C          -5.38314451610685   -0.22061141660706   -5.21669699651553
C          -5.83047791450740    0.34942035829354   -4.07399864280559
C          -4.98479829603664    0.70127170665489   -2.98832458212835
S          -3.25221168721114    0.55995854736362   -3.04502238834999
C          -3.07976514098924    1.11799616169359   -1.41283043660507
C          -4.30522865299296    1.42764766378084   -0.86755536376071
C          -5.39036910370552    1.18654078174711   -1.75160162214655
C          -6.74761729764059    1.35981158032987   -1.41643256590967
N          -7.85379492928443    1.46750455722213   -1.13975314717514
C          -4.49641959420266    2.00928153363594    0.49753042417992
F          -3.50260677364878    2.84087528045266    0.85381348190337
F          -5.62366481017531    2.71765553064346    0.60811484262315
F          -4.55048808913737    1.06066485501254    1.45768431022789
C          -1.75341089360271    1.17533480809321   -0.83795471485130
C          -1.45987500747072    0.85828640200564    0.41715095093238
H           3.18737345338351    2.68111919179894    1.86740851057006
H           4.58258206159934   -2.22259266661314    1.19190003691525
H           2.24345900743061   -2.90715514193948   -0.65605731746294
H           7.57953798273089   -8.87045936903885    2.87210865987709
H           6.12179183912243  -10.21492576729679    1.04086691996170
H           1.91128435613800   -6.53906563697649   -2.02941944914304
H           2.69282090165156   -3.63574847904807   -2.62097457474855
H           1.69352970622810   -2.53887006166452   -4.33577338585630
H          -0.20983425794036   -0.31205444470295   -7.27343514652625
H           0.92082236796389   -0.47160519147827   -4.49039219733887
H          -0.82943973904459   -0.61648179659047   -4.74080926277533
H           0.78228953060002    1.58446740558996   -5.75768724153487
H          -0.24223773463376    1.66648869750739   -4.47293313695897
H           1.99803454079372   -1.40677630800246   -7.84194820170931
H           2.45859426542317   -1.24929353706612   -6.13809510553171
H           1.79305781038151    0.99592917997237   -7.88272888789893
H           3.25542239167644    0.64081092217894   -7.23159417033695
H          -1.59724722270740   -1.19985837942990   -8.75917583648287
H          -2.63347765275813   -2.84118502126144  -10.32136078111857
H          -3.66612749178960   -4.96919441278310   -9.48169513064733
H          -2.43422544872246   -6.01926535925795   -7.63263018055031
H          -0.93937644047700   -6.59546549716655   -5.55450935568657
H           0.61321792171508   -6.63121080348510   -3.66838548770752
H          -4.96399479985528   -2.59280595278533   -9.64975933820418
H          -3.73172630916690   -1.57152899511912   -7.04581833932782
H         -12.20616566583332   -0.53773797983305   -9.05098681779079
H         -11.90318911804574    0.61460297285560   -6.62879400036409
H          -4.32433642780509   -0.42423232616647   -5.32148189405340
H          -6.88632455324901    0.55465699079093   -3.94116939907410
H          -0.97304613078782    1.46218616267988   -1.52965735122107
H          -2.19943913251420    0.52275786647891    1.12257175630372
H          -0.45077497387278    0.92148920585526    0.78382526345828
