98
 SCF done       -167.074678948339          0.000465423015
C          -1.31393778911959   -5.63743702257462   -2.94145803264835
S          -0.25614971488037   -6.78961720887474   -2.23438399917035
C          -1.29807528959978   -7.06570678566424   -0.86054850508341
C          -0.94908777725728   -8.05966974997117    0.19073989555512
C          -1.19484112708881   -9.48982087198831   -0.29462349126532
C          -2.40550138185559   -6.29266127805076   -0.98400578643462
C          -2.42670324249942   -5.46338481661709   -2.16952384237755
N          -3.51796551921874   -4.67819937716430   -2.29101358797177
C          -4.33651681840482   -4.82167871832225   -1.31447809155329
S          -3.84180929785886   -6.01852674769864   -0.05316534785916
C          -5.55252724048898   -4.11073861511673   -1.15484324081240
C          -6.51749621910296   -4.29851975781693   -0.07607434309037
N          -7.54132582450895   -3.49242322021414   -0.12929633462924
C          -7.33876288778034   -2.71968600121466   -1.23163311276787
C          -6.09737481343715   -3.09833264398497   -1.91667253112869
C          -5.87587784982874   -2.24221791731953   -3.05669755321021
S          -4.57816688818175   -2.27359612340232   -4.06611301483582
C          -7.00296391467281   -1.34099225556387   -3.05326071289501
C          -7.87771216907555   -1.65362540521254   -1.91151089508585
N          -8.91292051785518   -0.77215192407936   -1.83654934514653
C          -8.71520599406178    0.07380276438281   -2.80817492981279
C          -7.53479758275899   -0.20199241064957   -3.62608292634061
C          -7.11952411342681    0.58430585466734   -4.75318039720062
C          -7.42972612184519    1.93023140203354   -4.81327640051509
C          -6.94933330881834    2.71034838765513   -5.87651156773110
C          -7.06171253387650    4.07636125496465   -6.12858271220946
C          -7.83817028687712    5.05819286973232   -5.32919674190585
C          -6.91255601953137    5.99468351482248   -4.52600074354800
N          -6.22923425852113    5.24393211738218   -3.48887220491256
C          -8.80809379139136    5.89005072483080   -6.19200164220481
N          -9.73638998300647    6.60205135289595   -5.33154902932483
C          -6.31039301656275    4.33550216473543   -7.33658855555521
C          -5.99688670682279    5.47935640419890   -7.97383830436000
C          -5.20349753311218    5.48815572141090   -9.23143706982463
C          -4.78017344834740    4.13406734258278   -9.71478791643509
C          -5.05470932236039    3.00410071448583   -9.03875589964471
C          -5.79616585473674    3.05188994911435   -7.83450270104175
C          -6.16555016771058    2.07789220846307   -6.92640832886236
C          -5.90664086043379    0.69077180444460   -6.86286431141893
C          -6.36434448662502   -0.02592059119800   -5.80433586563175
C          -5.91557274956033    6.21342178458023  -10.34736071739386
C          -7.19388008471972    6.59656150319455  -10.29708510682092
C          -7.86476782942560    7.33662926231064  -11.32364778872520
C          -7.46278371397135    7.55047861660594  -12.71495095988312
N          -8.26956832408399    8.31405835570191  -13.39721639040386
C          -9.25599912148993    8.67476598076705  -12.52543594435201
C          -9.03344894600862    8.04980163948682  -11.21346752030137
C         -10.05331951579789    8.47060221381128  -10.28381895699763
S         -10.19814441892344    8.03796630353519   -8.70134080122959
C         -10.88020293871009    9.36103112823134  -11.04531233478112
C         -10.37227595807416    9.46452956147373  -12.42389310653546
N         -11.13131628146513   10.33486396282333  -13.15384109331198
C         -12.04037468230059   10.77872105010467  -12.33972513954394
C         -11.95318964896202   10.22561506150556  -10.97925107329861
C         -12.81087329327443   10.59093994721102   -9.92358065255159
S         -12.70298755038708    9.90313541829986   -8.31969626993818
C         -14.01015074370311   10.86371176741726   -7.70411269003206
C         -14.41908200982187   10.79430827213998   -6.27676895059916
C         -13.44981962121760   11.58462841433450   -5.39277162476396
C         -14.49145050018661   11.67288275623724   -8.69258996075726
C         -13.83363908142712   11.53055349861005   -9.95334527953252
N         -14.31821843565881   12.33381811516029  -10.93602984505757
C         -15.27865407982702   13.05695069271591  -10.50911185372597
S         -15.74509825910349   12.87113625671592   -8.82414886858609
H          -1.06190284077721   -5.16005637098915   -3.86531250293499
H          -1.56231102137666   -7.85890776382563    1.07247810660528
H           0.10215823423520   -7.94780639797762    0.46622223593112
H          -2.24180905138452   -9.62574371736252   -0.55618097866568
H          -0.93630377676594  -10.20015231670024    0.48622078570798
H          -0.58742912193790   -9.69894489981346   -1.17248518405332
H          -6.42955078001031   -5.03003405175583    0.70846427358063
H          -9.41982533905708    0.86860019985571   -2.98190437151851
H          -7.98369879297824    2.39692495682134   -4.01324834016047
H          -8.44416064196522    4.50732243855748   -4.60172233355960
H          -7.54098611970611    6.81394969886701   -4.14412074079832
H          -6.15161312105899    6.41681929963402   -5.18633985802161
H          -6.88669212203100    4.94269222630502   -2.77746571447148
H          -5.52311597036987    5.81377226351714   -3.03829643237696
H          -9.30567738379688    5.22010285633075   -6.91175831580883
H          -8.25868944685670    6.64170013430285   -6.75895152312162
H         -10.41553419994522    5.96019301399896   -4.93423188272365
H         -10.24412706646140    7.29165366243025   -5.87463499870704
H          -6.29160116349051    6.44743886407557   -7.59607036760487
H          -4.28518873960983    6.06832388527330   -9.03034036651768
H          -4.22824317516463    4.11225663553592  -10.64208828017172
H          -4.71458229298320    2.04682250807651   -9.40578898847615
H          -5.34034156947687    0.21406143536323   -7.64864301403737
H          -6.16802907468432   -1.08343122415169   -5.73619698389303
H          -5.31346698179513    6.41104989474049  -11.22316623674956
H          -7.79049935210642    6.40244878886039   -9.41538173052616
H          -6.59731691917001    7.12111238753134  -13.18828613720758
H         -12.78363100081789   11.48954397865386  -12.65375507280989
H         -14.43264487032385    9.75220099907563   -5.95080908882445
H         -15.42626429598520   11.20593992532168   -6.17890028177813
H         -12.44469737493053   11.17866671437232   -5.48031840851867
H         -13.76112436418233   11.52581091434102   -4.35343613265738
H         -13.43065303495216   12.63016477021455   -5.69163264761481
H         -15.80204776969182   13.76312561918490  -11.12362543722793
