105
 SCF done       -201.304047833292          0.000640549671
C          -7.03059645936965   -9.87259113644670   -6.32326025222423
O          -6.34079078228046   -9.68881691083217   -5.20921292352292
C          -5.50859008887949   -8.63454299749627   -5.40337121690870
C          -5.68601597987508   -8.12612777737410   -6.68886516738493
C          -6.68808434339025   -8.95032337547086   -7.28439818604601
C          -7.30861600449563   -8.93744282695829   -8.63726808063549
F          -8.22552417093507   -9.91137113866063   -8.75188885244068
F          -7.94305180998065   -7.79174010066569   -8.93065424606593
F          -6.42425878888323   -9.14325700025536   -9.63176451032742
O          -4.98655658369984   -7.06591312765493   -7.11216222496397
C          -5.13640096088733   -6.60169266903945   -8.44523128970888
C          -4.61415846920504   -8.16591572623850   -4.39541629448883
C          -4.50093392237329   -8.68981919950620   -3.16077400900184
C          -3.59893131068944   -8.22056408516858   -2.13017735825507
C          -3.12120340230763   -9.16333297573068   -1.20575234009433
C          -2.21070344602438   -8.76726630490377   -0.25684690675033
C          -1.76396168834540   -7.44106226998214   -0.19593622227847
C          -0.81951626296937   -7.32868099432643    0.93860293208739
O          -0.22613503935113   -6.36281285611148    1.35132976112403
N          -0.73522176328664   -8.60284236349229    1.47670804615909
C          -1.54310077058407   -9.52661644498469    0.82583203665755
O          -1.63625104355832  -10.69097662513647    1.12015919258887
C           0.07087556402564   -8.92917579274678    2.63370791039359
C          -0.73058848310249   -8.79218577960954    3.92335267991240
C          -2.23620827533131   -6.49424615928507   -1.07371458281313
C          -3.17585332175173   -6.87286325202810   -2.04228278801455
C          -3.79139018865420   -5.85541051583209   -2.87745862009332
C          -3.13795595883904   -4.80251821741229   -3.39596965860002
C          -3.67537285776043   -3.73581159911229   -4.18532401419293
S          -2.55516485107964   -2.48915243676287   -4.64806234716877
C          -3.80790438499288   -1.54738530716562   -5.38795798234729
C          -5.01673451813932   -2.20532591161195   -5.31887097021419
C          -4.94857189469278   -3.44181017755063   -4.63902057089551
C          -6.15075236211306   -4.30648041638149   -4.40296146038945
C          -7.41438569549960   -3.78034008636680   -5.10592962465140
C          -7.42203062330405   -4.19849556992888   -6.48851808038262
N          -7.41934899439282   -4.53374936820432   -7.58076945988823
C          -7.48528823442585   -2.24001684146021   -5.03259511087904
C          -7.41646451303103   -1.82103969129560   -3.65111055309337
N          -7.34244104454762   -1.50238711172913   -2.55647175276247
C          -6.31179752461217   -1.64343465035658   -5.82174634504484
C          -3.53024780081199   -0.25203147748013   -5.99006990213081
C          -4.08990461985008    0.04034577446554   -7.24034176474125
C          -3.81416865678527    1.25425941864022   -7.82423742364798
C          -2.98024425341884    2.18606948181530   -7.19623947152078
C          -2.88363884337482    3.37722345689390   -8.07539029298486
O          -2.27712129644676    4.40462284105549   -7.91419966363927
N          -3.67322865077496    3.08285236751437   -9.17914983048170
C          -4.26474689764248    1.83050380188290   -9.11221266716329
O          -4.99840525284529    1.36261046891221   -9.94623658075419
C          -3.82977133622657    3.97780007586780  -10.30595647527721
C          -2.76433149703681    3.72223851928552  -11.36595258361946
C          -2.40859890094418    1.91471018539987   -5.97657222298036
C          -2.68357114252209    0.68783198742380   -5.35510113268224
C          -2.10835045539254    0.37634696305160   -4.06398984853102
C          -0.88782993734724    0.76390562152380   -3.64964959207559
C          -0.31240376506204    0.23489212521827   -2.45011139204613
O          -0.90762647696962   -0.82468740797657   -1.88308717645780
C          -0.14505809782294   -1.27096532498920   -0.86349261928984
C           0.98274420297566   -0.46102314867036   -0.73809546291224
C           0.86900014622875    0.51965334610969   -1.76459330881357
C           1.76266337130692    1.67207363765949   -2.05275117409229
F           1.25774375547325    2.51308425575837   -2.96558275982912
F           2.01036107216771    2.43069985443515   -0.96711278598784
F           2.97310103105894    1.30709964786218   -2.53048972034946
O           1.90052657838074   -0.69205903260509    0.21537751780886
C           3.18706750826483   -0.10739903559742    0.13812394379761
C          -0.56725080596904   -2.45828592045400   -0.17343798636643
C           0.10219496353478   -3.05404600404116    0.81103424385324
H          -7.74293331778050  -10.67337523422398   -6.35786890530978
H          -4.42021914598688   -5.78786873571390   -8.54048750095879
H          -6.14201075411597   -6.21446314757159   -8.61924385967591
H          -4.89455749007507   -7.38173894365471   -9.16891068331735
H          -3.98865033615304   -7.34795751545087   -4.72066121864768
H          -5.08216005596149   -9.56932674254744   -2.91757067581531
H          -3.45347002416695  -10.18919483832310   -1.25297408750799
H           0.92320816611854   -8.24563346815576    2.63934740404667
H           0.41879278300702   -9.95773568065525    2.51106749615720
H          -1.08201811088520   -7.76971013525661    4.04150322138405
H          -0.10521519928185   -9.04808047414929    4.77384257677221
H          -1.58725415976853   -9.46192110294035    3.90475896798343
H          -1.91661371734538   -5.46679998082399   -0.99388904526280
H          -4.84396879708036   -6.00081165475914   -3.05607519943548
H          -2.07130354418398   -4.72225463995370   -3.22449424333449
H          -6.34634477778563   -4.35035960341217   -3.32646661598384
H          -5.94734393825078   -5.32182399023962   -4.75655735058881
H          -8.29913632452759   -4.21723062744492   -4.62574139141994
H          -8.43430166815484   -1.88730956882611   -5.45398448203090
H          -6.30782218546850   -0.55424929265680   -5.73351709867933
H          -6.45241947535148   -1.89535638803306   -6.87777186094635
H          -4.69591387371728   -0.68476465958636   -7.75870377440058
H          -3.75079471939527    4.99876773001852   -9.92496229644414
H          -4.82684331514572    3.81014592255458  -10.72038887581457
H          -1.77283828356977    3.87641143383889  -10.94648759331758
H          -2.90240238356846    4.40637609703084  -12.19823458959335
H          -2.83883675236280    2.70187973732839  -11.73500034049445
H          -1.77960011554304    2.64290567324232   -5.48968102664956
H          -2.68775985574492   -0.25854697315193   -3.40967865205248
H          -0.27123485114205    1.41055273148709   -4.25186345210469
H           3.77760417096382   -0.62293642467017    0.89405555073872
H           3.16402627154955    0.95809219095677    0.37384502033532
H           3.64234622918486   -0.26482880528615   -0.84190189377493
H          -1.50130595124817   -2.86087487958586   -0.54366786577101
H           1.02643223456144   -2.64650243832468    1.17821440335088
H          -0.24378942037902   -3.97123425867143    1.25315951496826
