85
 SCF done       -171.955175839532          0.000701246521
C          -7.25453175762571   -3.51010917626713    3.45660800312542
O          -5.99435952284063   -3.16586900521372    3.70185083950377
C          -5.34122504490575   -3.07110116661610    2.51345147303707
C          -6.23098374881540   -3.35036565969624    1.47548860339200
C          -7.47403147557257   -3.64885511485116    2.10738478257793
C          -8.76898699546321   -4.13672228662710    1.56442078768399
F          -9.67758991749638   -4.29194479821577    2.53573289238721
F          -9.33512070172313   -3.34883620940008    0.63827798772344
F          -8.65295883304380   -5.35224021766459    0.97672001597709
O          -5.84908341272971   -3.29414867481791    0.18137183354612
C          -6.75676054380569   -3.65163472636419   -0.84194638185006
C          -3.94471785059437   -2.79022167876263    2.51099228498377
C          -3.21814814383909   -2.66646172087402    1.37080189571938
C          -1.83142249580751   -2.45705771397135    1.27085320197438
C          -1.06819778992682   -2.23072907292585    0.09658854613393
C           0.31791826189947   -1.99546679239278    0.43311335940990
C           0.58010621109111   -2.04877855100485    1.76753797831923
S          -0.82858655188823   -2.41558197838954    2.69767379274601
O          -0.50023918994112   -4.05334091420993    3.03949029759624
O           1.27224142854706   -1.68140263672443   -0.45255619061986
C          -1.67619121050408   -2.12910980662213   -1.15417979410092
C          -1.20736624875817   -1.95859704650502   -2.44385626361248
C          -2.11492654961422   -1.67365073561696   -3.46718992505289
S          -3.79662737212854   -1.40711183750319   -3.07599692737639
C          -4.19970614017322   -0.96312333008117   -4.72248956627450
C          -3.05376297353006   -1.10195820519545   -5.53716304470074
C          -1.91112518564305   -1.45997269459938   -4.84069270179638
C          -0.56576395073932   -1.58894134058745   -5.48755761642968
C          -0.52921282407336   -0.81220175260837   -6.81048860660408
C          -0.58232857587339    0.60779819555095   -6.54746161837770
N          -0.63498940285227    1.72884627788515   -6.33329863124623
C          -1.73436777242734   -1.21543443846125   -7.68557266239202
C          -1.69315906317927   -2.64099250910870   -7.92291382450274
N          -1.65850134704913   -3.76761846643660   -8.10938742949054
C          -3.06102064870931   -0.82970056676334   -7.01079054487125
C          -5.49663172227051   -0.56329965322704   -5.01926977744453
C          -6.55220851352642   -0.22991273779959   -4.13329893646874
C          -7.76142775773788    0.02155919630408   -4.82871532937859
C          -7.64538885396693   -0.07339216586800   -6.20408532604896
S          -6.10383087146106   -0.57491185135521   -6.69233387485022
O          -6.09494660936500   -2.30997258134570   -6.75956875542191
O          -8.90270952157544    0.44424948068498   -4.27136764412958
C          -6.34876064686704   -0.03899898017942   -2.73513279309891
C          -7.21943680144204   -0.20006697612915   -1.70729217488426
C          -6.77015755196842   -0.04372788539615   -0.35931921049992
O          -5.46453727821703    0.14736490269385   -0.11741069656262
C          -5.25019626449769    0.21418225939007    1.22977846251548
C          -6.46747236830908    0.06165555154040    1.87523198937831
C          -7.44457169990333   -0.10389797613709    0.85195816652375
C          -8.89820932694977   -0.18541205343893    1.12527635537053
F          -9.62178263395902   -0.54218867297535    0.04960784198217
F          -9.20454331116540   -1.05491953922607    2.09947261569990
F          -9.40836111358943    1.00269160224778    1.52061712380602
O          -6.84797909601058    0.04375306536637    3.16678494037467
C          -5.88824638359842    0.22265680478232    4.18048192715976
C          -3.89914335528976    0.43727916726744    1.66953023947766
C          -2.86913167805357    0.58258862719922    0.83571201340829
H          -7.92498000996823   -3.62455896612734    4.28375980571248
H          -6.19760893153759   -3.53230296808361   -1.76879024020816
H          -7.62264758369273   -2.98800349380222   -0.86218586101983
H          -7.08275198630036   -4.68976799071866   -0.74504085623031
H          -3.48470691579692   -2.69365955254277    3.48623232438117
H          -3.76204377676007   -2.75411936245566    0.44466114093742
H           1.51762661714181   -1.84896272441959    2.24276876335533
H          -1.15786002131981   -4.43788098562728    3.62651833918805
H           0.87586416497088   -1.59303647843002   -1.32897401612088
H          -2.75653478285812   -2.15590789725974   -1.09602677052924
H          -0.16650231568770   -2.05417297545585   -2.72522579623109
H          -0.34802476659089   -2.64379113368820   -5.68712211253127
H           0.21082321059872   -1.20714363151438   -4.81968120371872
H           0.40640437355392   -1.02635267735553   -7.34210222318880
H          -1.66851337072370   -0.71660184732362   -8.66085812394141
H          -3.86401631146560   -1.39985618743421   -7.48346866786774
H          -3.25690128084273    0.23415691208383   -7.18378242282904
H          -8.39693717425931    0.19369188536040   -6.91629015184566
H          -6.48102396521076   -2.64206299117813   -7.57503123958394
H          -8.78429340658248    0.56177973363640   -3.31817002124981
H          -5.35008832768876    0.26035445466082   -2.45248010246029
H          -8.23667170309183   -0.53775390446361   -1.83091507804914
H          -6.44694232142605    0.17217468429079    5.11388027426206
H          -5.40303471225935    1.19967374085739    4.09967148114381
H          -5.13884561817852   -0.57290558190136    4.16190036886057
H          -3.73827509207790    0.48983920984200    2.73360209560470
H          -2.99800763144102    0.53099482847781   -0.23019171018515
H          -1.87367566080012    0.75588266794343    1.20314800064585
