91
 SCF done       -184.981023729084          0.000209706137
C           1.22238259010701    1.97262389870249   -1.05453750454918
O           0.77141496254377    0.77156388438204   -0.72953612435761
C           1.83466274014514   -0.06760610336137   -0.64593947205436
C           3.00201060209359    0.62933935841646   -0.93244614476041
C           2.58900645524809    1.97086934665366   -1.19594090187715
C           3.37148212431955    3.19606499154238   -1.50015813368150
F           2.58571510784240    4.28036192191681   -1.54984697376384
F           4.30926067241748    3.46343038175061   -0.56451828328451
F           4.03735724219142    3.16465183781788   -2.66893108873867
O           4.20669982443371    0.03881517016746   -0.91373665539739
C           5.26001274699164    0.63146585774307   -1.65062910858385
C           1.67986489572686   -1.44470753723279   -0.29750327288450
C           0.48682645533132   -2.04310119395547   -0.15038851724967
C           0.29204785166015   -3.41967686633332    0.24772635778735
C           1.10163733168245   -4.10366749128318    1.10682817674246
F           2.22578107365471   -3.65348972704621    1.66552127402567
S           0.53546789828919   -5.67847057964686    1.56125703942040
C          -0.83999552314325   -5.41529850909821    0.54741438917240
F          -1.75881548235833   -6.37881699403581    0.42929895677219
C          -0.85691522273482   -4.21700083031192   -0.11131652494885
C          -1.87747110364102   -3.88138729626760   -1.06956353051670
C          -1.69566305032214   -3.02099786558440   -2.09392287829159
C          -2.63762948954657   -2.64753755599480   -3.08984985809573
S          -1.99711448807989   -1.93700785424019   -4.53711411467085
C          -3.55523966398393   -1.77269738284585   -5.26898163599328
C          -4.55071146455105   -2.23829584499172   -4.40111549946589
C          -4.03583049005963   -2.73301855807321   -3.16083187727926
C          -4.92962188405011   -3.18062681673851   -2.16795307628055
C          -6.27679852719059   -3.20372946083683   -2.41969393553323
S          -7.49848570407818   -3.73278932374832   -1.27379912426304
C          -6.51996644283402   -4.38604375866569    0.12869173425407
C          -7.47008138963620   -5.01054873563905    1.13283317214308
C          -6.77485739384120   -2.75746533376079   -3.67513988411092
S          -8.53184994623643   -2.78712705441338   -3.95683323095394
C          -8.71913062621904   -4.57284245124133   -4.35655966092956
C         -10.18567066420764   -4.94901791873056   -4.32450829072250
C          -5.94050260090102   -2.26666955344959   -4.63379030485696
C          -3.72356010369747   -1.21560638945618   -6.56182799517959
C          -2.69256894140400   -0.87538695120880   -7.36532449887240
C          -2.79613131613269   -0.29168540051422   -8.67459004531390
C          -3.91012250176016   -0.30586888855975   -9.47007226583863
F          -5.10368030194743   -0.81675180569385   -9.16178617834960
S          -3.70274127872249    0.35954635983401  -11.05626294373458
C          -2.05381845300163    0.66622644813213  -10.65020246529477
F          -1.26289393449961    1.25446221869577  -11.54763321118633
C          -1.68800344957013    0.31385081492212   -9.38026364389755
C          -0.35250002328905    0.56970033379855   -8.90026429558502
C           0.02220391303747    0.75098104368903   -7.62056460272348
C           1.38444051086556    1.00411507376416   -7.25702975643232
O           2.31863918856449    1.12877294181069   -8.20842017847244
C           3.53005201088201    1.36919107325429   -7.63386248019922
C           3.36788107403781    1.40179938885814   -6.25527036330901
C           1.98419569488469    1.15937269397638   -6.01776051783898
C           1.39633625472975    1.11634237657765   -4.65850125581113
F           0.12297899928652    0.69015626341865   -4.63139216276519
F           2.07257376604369    0.29808523842872   -3.83141471173280
F           1.38839555216021    2.32264679853009   -4.05720825433919
O           4.20549110966204    1.60119536656203   -5.22327951312252
C           5.50754916369081    2.08489544267698   -5.47066599167410
C           4.66074731181062    1.51870584917113   -8.51516273976318
C           4.56223018793202    1.47373560080515   -9.84276585682536
H           0.51709959182615    2.77128587168454   -1.17488606888993
H           6.06014645844052   -0.10679343179031   -1.65339203856611
H           5.62158889298316    1.54598570510118   -1.17447115302470
H           4.94731580127759    0.83868653987388   -2.67677980547526
H           2.60805729711247   -1.98262917101374   -0.18280489812579
H          -0.41720560231196   -1.47238764471792   -0.31048325368175
H          -2.78975508376775   -4.45135083378312   -0.98105174376876
H          -0.71024278446750   -2.59524921442135   -2.23445839607381
H          -4.54300892658399   -3.46586386882203   -1.20652144974012
H          -5.97047038033316   -3.55721899992385    0.57620374020825
H          -5.82634279550476   -5.12972429150869   -0.26496461041359
H          -8.17476447014685   -4.26919399463777    1.50256746800400
H          -6.90807469454328   -5.40994728892686    1.97433543729021
H          -8.03200658390895   -5.82004697832149    0.67241510694963
H          -8.15214864724363   -5.13287862810375   -3.61439749226203
H          -8.28656167852146   -4.72749796725611   -5.34553833267531
H         -10.59651754726191   -4.77057090374101   -3.33382118631264
H         -10.30327487911921   -6.00231984622293   -4.57095755899697
H         -10.74594869611444   -4.35553873287050   -5.04305487913162
H          -6.35101470653105   -1.90405687803943   -5.56243746493984
H          -4.74358542873307   -1.05141066274560   -6.87413351302212
H          -1.68669979479054   -1.06807420895527   -7.02190883500335
H           0.39675969582851    0.66927499498658   -9.67489506262988
H          -0.68913047681253    0.73936390189745   -6.81242006874666
H           5.89186194639477    2.38950705954757   -4.49870160625841
H           5.48747465571312    2.95005133891824   -6.13711187494057
H           6.14679107485255    1.30112098109251   -5.88758925893281
H           5.62180835153590    1.66283321186013   -8.04941318471412
H           3.61569213210374    1.32951192143755  -10.33277584584391
H           5.42815342693727    1.58188207631575  -10.47031173360609
