118
 SCF done       -237.904327844004          0.000552376943
C           5.23370297172641   -4.25478444807327   -6.39972871035029
O           4.34253034229130   -3.43054629283361   -6.91661982691261
C           4.62397565352814   -3.27885164596281   -8.23465913709113
C           5.74233321553259   -4.04545167190098   -8.56544772362404
C           6.13486571717544   -4.68137568851731   -7.34867528972049
C           7.23767252455770   -5.63021157979574   -7.03661184198219
F           7.20845582269588   -5.99696914148660   -5.74757340381449
F           7.17892319273105   -6.77128320909157   -7.74976873610628
F           8.46544215743583   -5.12309531070552   -7.25223229368806
O           6.21496645198866   -4.07898226866003   -9.81334325180099
C           7.42337836746842   -4.75925656054978  -10.09925964343100
C           3.85208320794406   -2.43001914826337   -9.07740518187172
C           2.76381430917816   -1.76165988711008   -8.64997106660843
C           1.92089209935160   -0.91416224587002   -9.45209679047596
C           0.53904067958973   -0.88601747498750   -9.20115118217066
C          -0.23394852828220   -1.60845253357863   -8.16308352918237
O           0.16560781822699   -2.36720266486532   -7.31533454018552
N          -1.56667064393236   -1.23038353988939   -8.35025398140400
C          -1.71920800239575   -0.33987939935585   -9.42142249651247
O          -2.76430908412767    0.13194365130697   -9.78074142639301
C          -0.35693359683715   -0.13486239570931   -9.96314030323771
C           0.05820922664835    0.63935195344225  -11.02914799026956
C           1.42826551222773    0.66592824937821  -11.26238092758346
C           2.34712541494435   -0.06043738049254  -10.49810216129860
C           3.74906446214423    0.26564981109413  -10.81412524967784
O           4.75201919651413   -0.06241290817137  -10.25414951512044
S           3.79445662061380    1.39060121529817  -12.22876775391619
C           2.01283843326445    1.50226447657537  -12.32853363855018
O           1.42948533654891    2.16300791780794  -13.13455158260144
C          -2.67049431235197   -1.61378329270204   -7.59178022098074
C          -2.66459327936799   -2.53634101873836   -6.62446847546683
C          -3.81615189702944   -2.90535021452087   -5.82650962309373
C          -4.94759176001788   -2.12453210006195   -5.73413912759819
C          -6.01049788736042   -2.52638627675482   -4.90528081044616
C          -7.22210898596835   -1.90202089258444   -4.61569943154564
C          -7.73880783045137   -0.64496422956251   -5.21817363907456
C          -9.12613676286475   -0.85376143189298   -5.86284811992093
N          -9.25335786225502    0.02513211862156   -7.00806891098221
C          -7.76034078108424    0.50399325411547   -4.19239506483674
N          -6.39571340979519    0.85636991484613   -3.85063639176985
C          -7.89825436381895   -2.73696833500635   -3.64832969128774
C          -9.05633468732095   -2.57649560423730   -2.97954251722198
C          -9.53705824724471   -3.58631552588732   -1.99846917557987
C          -8.69626040959577   -4.82095298983785   -1.90027333844944
C          -7.52343273427180   -4.94849118125282   -2.55161760587286
C          -7.06440528074800   -3.92137642610378   -3.40680703708220
C          -5.90966016825080   -3.77008871275636   -4.16155465983964
C          -4.74610457663525   -4.55704942015193   -4.28273429562531
C          -3.73456343597602   -4.12517393050075   -5.08406576493590
C         -10.98316670220682   -3.94542126161181   -2.22796582722203
C         -11.59014474515086   -3.74515703847941   -3.39035303239237
C         -13.01444034821034   -3.92500153347485   -3.64022778092173
C         -13.72601747673272   -2.84890146541748   -4.17312322673665
C         -13.23783224071184   -1.49457078397275   -4.47915724459948
O         -12.12543621755615   -1.04123035790057   -4.32896002564717
N         -14.34519424544275   -0.79594964506369   -4.96578469995577
C         -15.51294758279391   -1.58897847225751   -4.97292841554303
O         -16.59159761971276   -1.20306933775466   -5.33825593510920
C         -15.09956704738589   -2.90346894239724   -4.44967460045688
C         -15.83580809628112   -4.04861006790220   -4.21106705862036
C         -15.14033950099294   -5.13162498087719   -3.68443322753931
C         -13.76616292700760   -5.08453206121949   -3.39777494106702
C         -13.21622438303995   -6.34733131308278   -2.88921647668735
O         -12.08894302445229   -6.60782050307019   -2.57983092914803
S         -14.54486365680988   -7.56042839607240   -2.78096017928611
C         -15.78817589673072   -6.41906649421442   -3.39700345898787
O         -16.93988372259983   -6.70871434491952   -3.53531521490944
C         -14.38852240749561    0.52673316712200   -5.37311743881979
C         -13.33855690348863    1.36191576015088   -5.41243451615933
C         -13.48389259949827    2.72458568954562   -5.83107819182948
O         -14.70505467171055    3.16735386327496   -6.15370476228383
C         -14.62081843502011    4.46591680497960   -6.51224912183251
C         -13.29976527746979    4.89265539583262   -6.42347748749509
C         -12.55777429298342    3.75965128398500   -5.97778594356861
C         -11.10126032675138    3.67358159436473   -5.70402782622015
F         -10.69991944641776    2.47143624395689   -5.26444089239448
F         -10.33761055756550    3.91403936441392   -6.79220131594208
F         -10.68404507146927    4.54634062308144   -4.76347855623679
O         -12.98710507331617    6.16392533999077   -6.72799234379658
C         -11.64416915219842    6.60302515112182   -6.78045100496850
C         -15.77990309869171    5.21527166931776   -6.90479147541314
C         -17.01428307532954    4.71876900083571   -6.95056607738230
H           5.16784387315659   -4.49323735790955   -5.35582916253105
H           7.60510423765504   -4.58269492922706  -11.15767951560986
H           7.33096982529921   -5.83336438683587   -9.92493234346821
H           8.25596920947072   -4.35611971662721   -9.51914683504357
H           4.20081356737130   -2.38412414382210  -10.09695196124828
H           2.41642544283135   -1.93525407004056   -7.64082941076166
H          -0.62582697403762    1.21013618038804  -11.63593448154184
H          -3.56118621197874   -1.08028606446056   -7.89521107583053
H          -1.75077032831940   -3.06862008720693   -6.40638728584616
H          -5.01586570196054   -1.18558531473557   -6.25946059818534
H          -7.06122270761983   -0.34164074675933   -6.02052360663528
H          -9.91563562035673   -0.70678203315226   -5.11202030976123
H          -9.19538147490383   -1.88176097268568   -6.23308122780254
H          -9.23621713287393    0.99542826620762   -6.71750439798939
H         -10.12375118411406   -0.14269303105273   -7.49818695778181
H          -8.37012106275776    0.20595108514319   -3.32375227583288
H          -8.22491585340502    1.38196990283555   -4.64601795572457
H          -5.93552953517460    0.08300637391838   -3.38205158756073
H          -6.36999404621577    1.66434354401878   -3.24021775298252
H          -9.68584986318971   -1.70884804436068   -3.11334021083826
H          -9.50134151911180   -3.09863315583752   -1.00769049847483
H          -9.07855096186784   -5.60702436514298   -1.26881314530029
H          -6.92836455791485   -5.84284268328049   -2.43946365867084
H          -4.66276498438415   -5.48168619562097   -3.73115807878665
H          -2.83200368396841   -4.71136332862868   -5.17722459930525
H         -11.50867696836345   -4.37048220254879   -1.38579033051317
H         -11.04836185393639   -3.29425761136662   -4.21132418526197
H         -16.89219865823340   -4.11247659638904   -4.41741120987008
H         -15.38217842626001    0.83780394823692   -5.66698323929330
H         -12.36166262427950    1.02389057761666   -5.11626790398449
H         -11.70233512634402    7.64175553426929   -7.10161632103724
H         -11.06208517846366    6.03544207513438   -7.50944214426432
H         -11.16394849250960    6.56100884162012   -5.80103315258244
H         -15.56752560690919    6.24146401212213   -7.16554382445817
H         -17.21697521337539    3.69553101402070   -6.68538964105261
H         -17.85124898597524    5.32272814574916   -7.25047680694399
