66
 SCF done       -132.622353551086          0.000385272275
C           2.29516773484873   -0.43866055062445   -1.99428672575846
O           2.27980069269663   -1.70882024531847   -1.62964635177266
C           1.15839767701280   -2.28644382647044   -2.13444607448522
C           0.43217400904656   -1.33134716967978   -2.85121746150503
C           1.18909805930515   -0.12555898707711   -2.75067708719663
C           0.96437296383926    1.24031083217196   -3.29564459401572
F           1.95580191030840    2.06994678268909   -2.94174880513421
F           0.90884815411394    1.28131569572990   -4.64087867770612
F          -0.17301379644591    1.81682579732453   -2.86231605789907
O          -0.72433226038425   -1.63345775081553   -3.45960599524316
C          -1.45529378009330   -0.62830650012008   -4.13735621133568
C           0.93168698662986   -3.66534504087069   -1.86951557242045
C          -0.12172192110858   -4.38078893133653   -2.33322223539013
C          -0.36062275520300   -5.76187016855016   -2.08632412658343
C           0.37771934161159   -6.58939396767647   -1.29923624847923
C           0.07514815083887   -7.95947347066564   -1.12643992741662
C           0.80623144101740   -8.79206376324351   -0.33811696569774
C           0.53554672433349  -10.16983450513108   -0.17480948552447
C           1.19498753923438  -11.10423231873218    0.63413704391535
N           2.30766474598573  -10.73271749980719    1.43535948306789
O           3.04141795941101   -9.85048824711388    1.02666294433857
O           2.46884798308451  -11.30606010133712    2.49741251665983
C           0.65819370070263  -12.41488653265793    0.58870278927803
C           1.22106628557420  -13.58635591007220    1.31885880929858
C          -0.42898452281564  -12.49423018611767   -0.26720830755172
S          -0.79600176474759  -10.93511270096747   -0.97164555706300
C          -1.27146151014670  -13.56922003681957   -0.66574930820495
C          -1.17988927326859  -14.88644686329307   -0.36131124822591
C          -2.10341683486107  -15.84269729917187   -0.86376718172368
C          -2.01056144330721  -17.16822616804538   -0.60248272828428
C          -2.92538858443408  -18.13315699721134   -1.11549605345056
O          -3.95235447743113  -17.73992839493850   -1.88481423752166
C          -4.68472878854261  -18.82626674721912   -2.26273846961052
C          -4.10422802797602  -19.96338822709227   -1.71506226161877
C          -2.97378759682155  -19.51296392854819   -0.97731435108312
C          -2.08247272742557  -20.44013204518476   -0.23628145599020
F          -1.06843322885514  -19.82192147897696    0.39292081515108
F          -2.73751576865087  -21.13206178551659    0.71314723943460
F          -1.51314174139801  -21.35620882444606   -1.03972842849878
O          -4.39185691521509  -21.27500637188988   -1.75701777943779
C          -5.50312881507698  -21.72929432016464   -2.49269557756464
C          -5.83612967248387  -18.58897206682672   -3.09425800071464
C          -6.20972003675443  -17.37521144163790   -3.49833978475367
H           3.11640098884430    0.17611641356018   -1.68219739008067
H          -2.33996613392996   -1.13202437455737   -4.52293480829398
H          -0.88852862682170   -0.21181263895571   -4.97246657626165
H          -1.76425196845189    0.16950862102907   -3.45883774885247
H           1.69297016930152   -4.12523951244552   -1.25655495808480
H          -0.84348399132048   -3.87123945690723   -2.95375389965853
H          -1.22557746696754   -6.18416349784252   -2.58285860453758
H           1.24190943246456   -6.21299461957535   -0.77105055838932
H          -0.77860602242307   -8.35683161881050   -1.66298811059872
H           1.66648121766755   -8.40256933451711    0.18809967697681
H           2.03312100374790  -13.28377732626231    1.97266263783197
H           1.59343750362926  -14.32524566704062    0.60970762427711
H           0.44933999989023  -14.04882624328220    1.93206565349680
H          -2.08411861872136  -13.26604310105807   -1.31636064074064
H          -0.39183185751609  -15.26812260984150    0.26551725500778
H          -2.90992880963219  -15.48525483519139   -1.48933571798016
H          -1.21188728673820  -17.54508991283656    0.01658339825378
H          -5.50457998241108  -22.81116060128096   -2.36879281830320
H          -5.40376138607765  -21.48641045334454   -3.55448840574597
H          -6.43671810573403  -21.31832344961158   -2.09806292810429
H          -6.40757124286603  -19.45351232152181   -3.38986639344829
H          -5.65855855204570  -16.49521455084577   -3.21828447621486
H          -7.07635608001510  -17.23575664535020   -4.11878451689481
