140
 SCF done       -224.699720111213          0.000911199438
C          -0.07489778291117   -1.90949000115645   -6.39414268381677
C           0.43430451451720   -2.00038314322728   -5.10582048624440
N          -0.19879373048349   -2.40312364485504   -3.94415829323964
C          -1.62906743642115   -2.24042818789350   -3.79281266994834
C          -1.99426030130068   -0.76272993119453   -3.65639559397196
C           0.72964768064305   -2.36412893433780   -2.92172177447162
C           1.96380264959749   -1.87920195130193   -3.42336808055715
C           1.78382805041600   -1.68755914578065   -4.83429687967796
C           2.62842489295595   -1.28027684900404   -5.85858522654346
C           2.11886746983458   -1.19918365830561   -7.13864578344977
C           0.78604677106589   -1.51207519478737   -7.39909565777018
C           3.04238554873059   -1.65430580655221   -2.58035870236967
C           2.88640432091683   -1.90425585460194   -1.23052409560231
C           1.71148478346946   -2.46385212629616   -0.75041731071968
C           0.63202021493761   -2.77200736092072   -1.58056722077789
C          -0.39734525483611   -3.65149410157820   -1.05320772996207
C          -0.97038806433826   -4.59401756729146   -1.81554278361599
C          -1.89671290342125   -5.63107721457195   -1.39866318539967
C          -2.75812377181271   -6.24736619703799   -2.32728035395376
C          -2.83330869721285   -5.89780047403205   -3.76847124598704
O          -3.88954705495097   -5.58400346844418   -4.28827526604180
C          -1.61311902140704   -5.97823505186434   -4.58720319218840
C          -0.40177450525907   -6.52503526262184   -4.25687201741242
S           0.75670602917676   -6.33543139502669   -5.49807730644050
C          -0.39313784123692   -5.52520332496972   -6.49969328058636
C          -1.60701876336949   -5.42602683622825   -5.90722168112064
C          -2.83074437110634   -4.80751284824064   -6.50680292364190
O          -2.99200720323661   -3.60612632387711   -6.50543827736563
C          -3.78076046266543   -5.75206400743154   -7.12948069005723
C          -3.49579844314045   -7.10887316198311   -7.27164660732382
C          -4.42133680216551   -7.95048592085110   -7.85830693006837
C          -5.63519435964186   -7.45107013893265   -8.30411679153368
C          -5.92494610459400   -6.10275585917436   -8.16527736109303
C          -5.00273744921029   -5.25665609776194   -7.58265700517699
C          -3.68580219275467   -7.18486200429000   -1.87635068983875
C          -3.72890568014409   -7.57722062827458   -0.55845621814657
C          -2.85307757097622   -7.01200095059462    0.37724884463629
C          -1.96456486383382   -6.03365663916181   -0.06721145979527
C          -2.86855831990075   -7.44935099088946    1.75409161655093
N          -2.23222612512919   -6.74932239637916    2.75798114332032
C          -2.38989484968713   -7.42571577289656    3.92589651460865
C          -2.07153953275542   -7.41811414714416    5.28419673675721
C          -2.62708908117396   -8.58199952149765    5.81582778103320
N          -3.27392214154487   -9.27822079867181    4.81401462646844
C          -3.13653797940492   -8.59107573866973    3.65007134067574
C          -3.43997515102146   -8.60130300370700    2.28625776775992
C          -2.59798450769091   -9.08342741282519    7.15069938808370
C          -1.98734909212780   -8.46085234232967    8.17557103557725
C          -1.92038032411900   -8.95809683071587    9.53641939342040
C          -1.90981105662834   -8.12441993996641   10.67509746998084
C          -2.11579232068876   -6.66157428166086   10.67544059245121
O          -1.95170714592560   -5.98898721402572   11.67466206059061
C          -2.63775204906568   -6.02716645406800    9.43073459284758
C          -3.85975204574144   -6.33612371339841    8.91971974305624
S          -4.26487550719348   -5.38576289730675    7.54356261863865
C          -2.78820477427014   -4.54103175330264    7.65985926135916
C          -2.00893798904545   -4.96458936232838    8.70439370584601
C          -0.70605648616017   -4.33258795774014    8.99915045965150
O          -0.40020668532041   -3.25985864386117    8.52080451933994
C           0.18305696082952   -5.07524836739444    9.93359583249515
C           0.60388262805060   -4.45174404686747   11.10261086589802
C           1.37539752412145   -5.14471948955031   12.01636360644101
C           1.75404344666303   -6.45214440595664   11.75962089785070
C           1.37558402005752   -7.06095638216845   10.57565184552736
C           0.58916543807441   -6.37783424407503    9.66631631480455
C          -1.74065765013274   -8.70126350711809   11.93773066316665
C          -1.59903058942623  -10.05855826153214   12.10492325790594
C          -1.61743075768229  -10.89748106014370   10.98971566817262
C          -1.78781260473303  -10.33418521481395    9.73264442974209
C          -1.50448119259298  -12.35616086196733   11.13047774633712
C          -0.62528722490211  -13.15175507275566   10.38729058927364
N           0.38134842682744  -12.79742497027133    9.50409265733586
C           1.12728481026983  -11.56008274350809    9.59022918678697
C           1.73611343178862  -11.36769516989593   10.97896923309005
C           0.91187048398259  -13.96354052974029    8.97608519198990
C           0.27377373354614  -15.08108934947257    9.55983756081040
C          -0.71008353992091  -14.56203009718418   10.46517066043621
C          -1.61364089643223  -15.18298204505255   11.31528767407474
C          -2.43215570060521  -14.39191583800192   12.09578871385523
C          -2.37728523552580  -13.00783427519314   11.99660994603803
C           0.64656865811163  -16.37622428455801    9.22776120063924
C           1.65819137769244  -16.54858448766010    8.30565646990389
C           2.25336076214837  -15.45121865175749    7.69573491368087
C           1.88894272265592  -14.14039501730136    7.98882617265191
C           2.46488546087410  -13.04477544823543    7.20160964469062
C           3.74748021752990  -12.94888782606275    6.88117302180156
H          -1.10331613755367   -2.14937278884369   -6.61301417243746
H          -1.97034937946505   -2.77837852641678   -2.90859985091496
H          -2.12274524522763   -2.66262948953945   -4.67033224778542
H          -1.51410672533452   -0.33322961370805   -2.77874506478225
H          -3.07080448568558   -0.65809933099457   -3.55490142674445
H          -1.67073848572034   -0.20958643860363   -4.53523858213833
H           3.66093510007389   -1.03855560512563   -5.65478806439203
H           2.75811311127706   -0.88980294373907   -7.95254942914421
H           0.41602005034072   -1.43908442783153   -8.41159716196030
H           3.97517578008159   -1.28035080991249   -2.97390013356651
H           3.69590376557401   -1.70276999442046   -0.54490764737761
H           1.64452280069571   -2.72676827581067    0.29598229273621
H          -0.58624695469838   -3.58738273836636    0.01016622094698
H          -0.70996937665676   -4.59614566590421   -2.86112209391446
H          -0.13321996661479   -7.01825903447117   -3.34311628680172
H          -0.09935588090322   -5.18165637365017   -7.47113117630353
H          -2.55189182197041   -7.50577348527957   -6.92708071996685
H          -4.19812265115404   -9.00184839451534   -7.96766617041247
H          -6.35578486899616   -8.11522739122054   -8.75855254999691
H          -6.87186553679270   -5.71514943643360   -8.51076724046443
H          -5.20828182342049   -4.20432170211744   -7.45814847388853
H          -4.37068516238644   -7.61429054068806   -2.59309362318564
H          -4.44941814628625   -8.31366864552759   -0.24202470699595
H          -1.26792110193273   -5.58822875610198    0.62639356764519
H          -1.78842835138906   -5.85555077883940    2.64411281004262
H          -1.51536672994214   -6.67696322854899    5.82235312155087
H          -3.75051167619808  -10.15369904357246    4.94423946371804
H          -3.97783064756369   -9.35165492696931    1.74341531037245
H          -3.13997912784591  -10.00524347437109    7.32261360947270
H          -1.49198954027942   -7.52611613946193    7.97122601859348
H          -4.55259488502780   -7.07013534220688    9.28058291763479
H          -2.54279182140984   -3.76578237178244    6.96082910387662
H           0.29653920265351   -3.43572484737868   11.29741722259604
H           1.67922502410294   -4.66430860315372   12.93424729562782
H           2.34883426191344   -6.99499995685797   12.47943588514029
H           1.68104399514488   -8.07489880560243   10.36094272679849
H           0.31725290354286   -6.85041351650126    8.73421312302549
H          -1.73010014054603   -8.03697559183087   12.78925430534416
H          -1.46052081192111  -10.47799700330850   13.09044832639282
H          -1.80427083169399  -10.98706052017380    8.87134425848634
H           0.48176136999036  -10.71203035199851    9.34629496418572
H           1.93244992572865  -11.60716768917733    8.85778870189958
H           2.36452227159441  -10.48086286145596   10.98570999545423
H           2.34812836991551  -12.22871759764276   11.24250911514990
H           0.96148067725208  -11.24737822485160   11.73184269029891
H          -1.66852685746920  -16.25972526883104   11.36216486795964
H          -3.13762365735615  -14.84593799462551   12.77525331978559
H          -3.06004764150279  -12.40814032869537   12.58113942124116
H           0.15161135588350  -17.22176593063065    9.68022084849723
H           1.97678116643521  -17.54294768700264    8.03081827691387
H           3.00214778128107  -15.61362700805860    6.93458752324637
H           1.75727798617293  -12.31275200393554    6.82785342988010
H           4.47529002537046  -13.65532033904607    7.24414627093614
H           4.12043582055908  -12.15231220301296    6.26012799805177
