99
 SCF done       -175.495167233833          0.000657885592
C          -6.61512266837187    1.01729558551055   -2.95919908558310
C          -5.45174040194614    0.33121143662838   -2.63767490443163
N          -5.29072460519569   -0.85170317217922   -1.94699785412657
C          -6.40403935317753   -1.63045009357919   -1.46730579459388
C          -6.89775512591334   -1.15544804821326   -0.10296798083031
C          -3.95390828718884   -1.13598267548341   -1.86605549726816
C          -3.22539248875902   -0.12811774586100   -2.55531000274217
C          -4.18849534276203    0.82188555484963   -3.03292810678797
C          -4.08951039158952    2.00245112862840   -3.75701325619469
C          -5.25043620240579    2.67874339565096   -4.07413030649598
C          -6.49408232610084    2.19016898011998   -3.67971295960648
C          -1.84976865226363   -0.20170215326594   -2.69132384791686
C          -1.19017623941752   -1.29653734926811   -2.15856716889638
C          -1.89171257047263   -2.28638448001614   -1.49437242688138
C          -3.27906945558478   -2.23516415953573   -1.30260215719910
C          -3.92109000653337   -3.24991760973966   -0.50164498399346
C          -3.54816553837410   -4.54999698816349   -0.52896919412453
C          -4.02223306980472   -5.63849308236974    0.25475070931434
S          -3.45128826249307   -7.20563994905962   -0.26470542087998
C          -4.23053206715353   -8.03593299836309    1.04999373821770
C          -4.87470588535750   -7.12602124561608    1.87149914747577
C          -4.77961391829453   -5.77963508287212    1.41734672420362
N          -5.42458487285411   -4.76827039564736    2.16886596763317
O          -5.78626443941653   -3.75023834652553    1.60231173819144
O          -5.60539037018755   -4.99042871886374    3.35078140212540
C          -5.59693197083872   -7.54758032501299    3.00451700034917
N          -6.17843056652939   -7.99351834683151    3.88680354981737
C          -4.20662776276030   -9.44645151919762    1.19987353022243
C          -3.65807064800969  -10.28602396447254    0.29152764983286
C          -3.65245411191579  -11.70332371820359    0.38121316823373
S          -3.05602082733545  -12.62103687909464   -0.99612600503688
C          -3.40615672632960  -14.08930799356774   -0.18444772625609
N          -3.27184121738665  -15.35610838751305   -0.56449127360426
C          -3.66555177615823  -16.16793340459951    0.36884105558199
S          -4.27245270880147  -15.37855471345162    1.84709227318791
C          -3.94356541105121  -13.86272316028732    1.09690834824109
C          -4.08448334911460  -12.51428866331361    1.41379678078112
C          -3.66797726806345  -17.57986421717569    0.24056725439184
S          -4.57740191559957  -18.58219126468211    1.33182193427793
C          -4.19285121248579  -20.02021361092159    0.43359060450179
C          -3.40768154815937  -19.71424254586724   -0.67345433123760
C          -3.09892200427202  -18.33741775923761   -0.76554481947160
N          -2.22789149171199  -17.82486183741353   -1.79007192405551
O          -1.33098085445916  -17.09584388875951   -1.44128935050410
O          -2.44122859284942  -18.20616856066546   -2.91772579044035
C          -2.96477655735861  -20.70137182380087   -1.57235285482141
N          -2.63360525494352  -21.54732058127739   -2.27145649879950
C          -4.64276895488929  -21.31414501135928    0.80793760604749
C          -5.37911772575921  -21.57701461968418    1.90537359512413
C          -5.77735394748627  -22.90561328552129    2.33180294321019
C          -6.37087670361610  -23.91418847234700    1.55057508933062
N          -6.98306603070231  -23.88132110335608    0.31882207685952
C          -7.21657175022534  -22.69209943104946   -0.46652054915540
C          -6.40477976224091  -22.66154748923050   -1.76072068757503
C          -7.47190263134623  -25.14546012530001    0.02322819600283
C          -7.13948404510880  -26.01660377590136    1.08742887912538
C          -6.48349847852512  -25.22389253658863    2.08288790252836
C          -6.06286172320360  -25.53319034081479    3.36617575568929
C          -5.56654373963619  -24.51600976004136    4.15942213359791
C          -5.44727334325276  -23.23383278061891    3.65181425111356
C          -7.46334085010362  -27.36587644102867    1.06464756823747
C          -8.12325989778840  -27.85612328057931   -0.04102107854986
C          -8.46812375186739  -27.00472341503258   -1.08186041420279
C          -8.17504042899322  -25.64250266513485   -1.08576071360211
C          -8.65919794471327  -24.85781447261995   -2.22829641494126
C          -8.57407969184933  -25.26564859237847   -3.48689894723086
H          -7.58813413940032    0.65870999799639   -2.66047931366563
H          -6.10476128452774   -2.67997119158753   -1.42021641748233
H          -7.21180169226638   -1.54252073649143   -2.20122974981214
H          -6.12213029498079   -1.25879522985614    0.65045120799266
H          -7.74935986202381   -1.75305833893156    0.20822493011988
H          -7.19621706569830   -0.11077875928566   -0.15145220466641
H          -3.12531662086484    2.37999385924944   -4.06169460455292
H          -5.19940390352049    3.59998363691644   -4.63472534498504
H          -7.38458745602581    2.74187417340267   -3.94228339110282
H          -1.30925281073791    0.57639845311964   -3.20764371642289
H          -0.11788575029871   -1.37821233089158   -2.25106226547773
H          -1.34669638281143   -3.10839090426008   -1.05507584021206
H          -4.70579682206251   -2.93258391268255    0.16625112088500
H          -2.81725040389089   -4.85338440036756   -1.26981773113188
H          -4.68940109716766   -9.82702170396017    2.08894263426561
H          -3.20459883536945   -9.86994252393306   -0.59951385998051
H          -4.47575578484796  -12.14677014105579    2.34357360101457
H          -4.34109538917753  -22.11895469406166    0.15263591405671
H          -5.58132620009734  -20.76831543910021    2.60039321450038
H          -6.96751650859369  -21.83088690500268    0.15462738782719
H          -8.28344407156905  -22.62537600122656   -0.69706438705960
H          -5.34432349421769  -22.79201315634810   -1.56683775625135
H          -6.54754471402708  -21.70673652192841   -2.25964757036775
H          -6.72261538855429  -23.45461193555982   -2.43134409921475
H          -6.15089403380448  -26.54083381256186    3.74112072608985
H          -5.26152367786968  -24.71612276127001    5.17493778645982
H          -5.02777307615273  -22.45754310850441    4.27531389206220
H          -7.19860544638546  -28.00543085305057    1.89213315246593
H          -8.38780342004522  -28.90092359546236   -0.10017735720663
H          -9.01744154897254  -27.40383872036217   -1.92132414917421
H          -9.15831849966268  -23.92414298303373   -2.00931160411109
H          -8.07781458598134  -26.18343437013055   -3.75516346395330
H          -8.97896201942012  -24.68527211256490   -4.29829898647208
