128
 SCF done       -200.808425832412          0.000633833856
C          -0.77081659986781    1.37028219048602    3.21286056966386
C          -0.02385585256841    0.33220329495079    3.75310197955131
N          -0.32093861745035   -1.01516492279180    3.83389809902344
C          -1.31429353175506   -1.61160079533715    2.97269435947133
C          -0.78988709953053   -1.74628906100108    1.54334110862894
C           0.73191143631524   -1.65313993718454    4.45291079477459
C           1.73754477485799   -0.69876779129914    4.75912449027159
C           1.23488226176825    0.57898507795792    4.34193378074455
C           1.74545465952693    1.86894328292134    4.39366161187836
C           0.99345005491534    2.89674771990319    3.86103731934736
C          -0.24734831604723    2.64732084543018    3.27920067221151
C           2.95321775264772   -1.08121712311778    5.30309360687094
C           3.18794110978414   -2.42902612980937    5.51334115046384
C           2.20146360995213   -3.36240260572635    5.24833793308592
C           0.92912402915238   -3.00651860116120    4.78145603059915
C          -0.07570068887007   -4.04256639872193    4.77696096878387
C          -1.35328463013713   -3.87201557482104    5.18643882046181
C          -2.34553759744372   -4.88924346591838    5.20603314992673
C          -3.67972701384277   -4.67665199188769    5.77256225777915
N          -4.48633328122728   -5.69185522950311    5.66476115478076
C          -3.76374567771347   -6.65581236257476    5.02511426873141
C          -2.39768531960962   -6.19054943250487    4.73886147930967
C          -1.68532299682882   -7.21664955005480    4.02372384077130
S          -0.16232342564184   -7.14394735423458    3.39135550161100
C          -2.62459220289054   -8.30349623899154    3.89655999802178
C          -3.90371521123695   -7.91796475236625    4.50731990063385
N          -4.83938573697898   -8.89391041012495    4.33051558435724
C          -4.24540164841448   -9.81635771722904    3.62843703137775
C          -2.84759948050991   -9.52956677560499    3.30429846113340
C          -1.97323849500796  -10.40713031735948    2.57547856041317
C          -0.61820848753793  -10.41531646754118    2.83873930853568
C           0.23009041681891  -11.29375464738896    2.14396237071555
C           1.60236921087527  -11.51637997997530    2.23406822416887
C           2.60309664396983  -10.85519003981693    3.11488382950600
C           2.79215843463432   -9.38032066543832    2.70969465964448
N           3.90751610865567   -8.79281013699502    3.43646887029054
C           2.23895048879248  -10.98537004726402    4.60781219520563
N           3.45862253994646  -10.94575527608157    5.38980749724888
C           1.91886207629227  -12.53817115673305    1.26634537045072
C           3.09023796237047  -13.11805084899481    0.94171286374838
C           3.16464677134461  -14.19823481224478   -0.08069759130486
C           1.88361751043230  -14.46895764549725   -0.79839020869858
C           0.71865397112931  -13.88279125797476   -0.45986917852845
C           0.67920194841463  -12.92072790227918    0.57640751052560
C          -0.34050356318724  -12.16763727541069    1.12689618344428
C          -1.73097773917906  -12.13381568292973    0.87626352101818
C          -2.51967299516610  -11.28860576249082    1.58793379586603
C           3.58572435088887  -15.44689066925944    0.66250722369790
C           4.84003339074995  -15.90661404901536    0.68407464229440
C           5.26621211445838  -17.07701890912940    1.38828602330793
C           4.43846575633488  -18.11889432973594    1.99670902112953
N           5.11196473865021  -19.07152680970582    2.57853882326001
C           6.42585256835156  -18.74551119770519    2.40843749738315
C           6.55078830513756  -17.49761823761528    1.64030863055147
C           7.93651805861227  -17.12150758823250    1.51916572186397
S           8.54852000350133  -15.78138868800883    0.78392642487674
C           8.64647900390428  -18.16362210216234    2.22153541781662
C           7.68785505605123  -19.15196537650676    2.75562813327420
N           8.33573523929372  -20.09557327032394    3.49426009841998
C           9.58642757391917  -19.72654956466039    3.50717919982051
C           9.87298249763345  -18.51955689815419    2.73355796343374
C          11.15177730905060  -17.85248518066035    2.68443137635515
C          11.73990880818510  -17.25648251237878    1.55466104552501
N          11.44486860094508  -17.35605014820925    0.21910447303443
C          10.55850280205438  -18.32020561537569   -0.37619669413569
C          11.24908422912126  -19.67314971077471   -0.54625371037836
C          12.32735516818353  -16.56756021801114   -0.49476633520869
C          13.20618116841304  -15.92782164011862    0.41051429571607
C          12.86391279565813  -16.40578100331237    1.71824512858652
C          13.44377375182832  -16.20006088376773    2.95780501773113
C          12.92224583040901  -16.87182974840955    4.05097308729079
C          11.80897557560608  -17.68012161560249    3.91018816772853
C          14.16885179717586  -15.02942101091960   -0.02489840521378
C          14.23830192781947  -14.75416502567345   -1.37508406144220
C          13.37958377448588  -15.38329689316722   -2.26727765533376
C          12.42180372390854  -16.31141936195776   -1.86831860592542
C          11.61341082947689  -16.95497877267999   -2.91428621445931
C          10.93239675818526  -16.27686056047707   -3.82520369963099
H          -1.73335070019099    1.20007190076330    2.75492466087627
H          -2.20514197602358   -0.97782445499477    2.98962121875620
H          -1.58640100324066   -2.59672067153896    3.34883419644753
H          -0.51002960271950   -0.77373380012200    1.14415867890776
H          -1.55554453660884   -2.18104718604362    0.90651100272794
H           0.08470964984000   -2.39310100650233    1.52696766713173
H           2.70817665582272    2.06003324107786    4.84301793794100
H           1.36783433612111    3.90896867861037    3.89216422339757
H          -0.81258805317995    3.47075905304318    2.86821811229925
H           3.70476869569119   -0.34189828781090    5.53350421431751
H           4.13948191768972   -2.75751597815957    5.90325181555957
H           2.38787851945344   -4.40527922525485    5.45932782397672
H           0.26305320925626   -5.03796054858765    4.52173604154184
H          -1.66944841241651   -2.90559652156957    5.56327629897636
H          -4.00015058348859   -3.76881607553639    6.25537114894595
H          -4.76844282121535  -10.72116459466272    3.37133655330378
H          -0.21961223281156   -9.76619680659423    3.59988204496377
H           3.56712686696021  -11.35999096270614    2.99426441866508
H           1.89475477434059   -8.81317899931295    2.96187951111284
H           2.91881692235106   -9.33420586512400    1.61435701974825
H           3.93857776431070   -7.79235235767340    3.27479643680737
H           4.78492327428143   -9.18865388686222    3.11232644900916
H           1.75579459923244  -11.95362127878871    4.77968510742601
H           1.52272723383382  -10.19473488962872    4.87832163469624
H           3.25080560797693  -11.01933104428494    6.37957582733931
H           3.91874168737447  -10.05513820092889    5.21946934863126
H           4.01685561992325  -12.86669935316684    1.43891386961905
H           3.95609186452103  -13.95356098056375   -0.80116441673974
H           1.93218398085753  -15.20453844887027   -1.58690996948503
H          -0.19320706732814  -14.12427931831180   -0.98668436039806
H          -2.15244823832096  -12.78102441096862    0.12107993255495
H          -3.58124513907429  -11.24597889830926    1.39619419046485
H           2.79578085617212  -15.93679159721963    1.21238923221310
H           5.62532771198026  -15.37542649555193    0.16003980995127
H           3.36342911861925  -18.15395998474045    1.97555137921890
H          10.32554694174065  -20.31719821218018    4.02095401545176
H          10.22876437814542  -17.92662133401698   -1.33950477913126
H           9.67803686024111  -18.44630794445297    0.25261994122945
H          12.15366046766446  -19.57186875721874   -1.14268449285793
H          10.57928067476279  -20.37403239276974   -1.03747049222040
H          11.52417272872077  -20.07951603975379    0.42506642259219
H          14.29443348410474  -15.54450690623480    3.06240982028924
H          13.36905836625273  -16.74963987219650    5.02591116713265
H          11.38325748807060  -18.14984833385983    4.78512095080410
H          14.83403335857985  -14.55412645527398    0.67936325138705
H          14.96620776211486  -14.04975407576832   -1.74864870039362
H          13.46523069146800  -15.16750860998286   -3.32226497017979
H          11.64677633705466  -18.03676862387334   -2.95871816015840
H          10.88147522586579  -15.20095396663558   -3.80389997897259
H          10.38337366392718  -16.76948989439553   -4.60981879401539
