103
 SCF done       -184.670789197972          0.000938688708
C          11.78860332964578   -7.15642541997077  -11.60717941496524
C          12.30092486392972   -6.42413245063019  -10.63308316602069
C          12.32850772743377   -4.94797081194139  -10.65767459941532
C          13.16454642786542   -4.33422126972854  -11.58280962802351
C          13.30582996022278   -2.95377495934719  -11.66872918407275
C          12.60070140114217   -2.12460658324686  -10.82285928997167
C          11.73760000902675   -2.70590100702671   -9.90411852553948
C          10.86283467212928   -2.14214870486419   -8.91843271345993
C          10.65010901781792   -0.83407423944524   -8.51603974952747
C           9.76244277886990   -0.59946807743296   -7.48122185517102
C           9.08825811757807   -1.64889005986675   -6.88276880770308
C           9.24791117451288   -2.98202698566063   -7.28256710950843
C           8.41959437426369   -3.99571127218549   -6.67436161324033
C           7.98578751000776   -3.98351537437073   -5.39588602692126
C           7.14473137625969   -4.99428524145953   -4.85863756296515
S           6.55610828961515   -6.33050763063557   -5.80373379405998
C           5.72003034189955   -7.05001884561061   -4.44941654561907
C           5.11890304646067   -8.30396779097188   -4.73602539190453
C           4.62436376107683   -9.22724285450054   -3.87494514326982
C           4.12164697648361  -10.49157633133618   -4.26699075547427
S           3.68916997816181  -11.63878830072882   -3.02935950941182
C           3.24439278297988  -12.86382564092862   -4.18527003551868
C           2.84191931076236  -14.13840058761237   -3.71905103416451
C           2.45218561042726  -15.18098619222103   -4.49160420161746
C           2.13456271843843  -16.46156139360373   -3.97652231534414
S           2.26597275968889  -16.87203256088673   -2.28990884063963
C           1.81466721632314  -18.53872120639973   -2.55471251899825
C           1.74260450247515  -19.31673867370439   -1.36834161694689
C           1.40016542790482  -20.61936600853001   -1.22116168474436
C           1.42818471338778  -21.32198116295154    0.03563982665047
C           2.36238035152178  -20.96260882941433    1.01894628096420
C           2.54513026263320  -21.68857306129112    2.18087534583291
C           1.78816838808288  -22.82107310794355    2.43233271088552
C           0.82987337408480  -23.19329027565194    1.50610769630312
C          -0.12758006024899  -24.26160227206357    1.49407856506860
C          -0.40317729566353  -25.30860380812657    2.36313720489872
C          -1.43110804307513  -26.17340356303031    2.04501147432770
C          -2.17868405838220  -25.99976368535247    0.88245466649950
C          -1.92230056879945  -24.96307369049471    0.00529744556898
C          -0.88821338074318  -24.09125990444547    0.31779641713233
N          -0.42876366887427  -22.98812784107600   -0.37280068903426
C          -1.08822433249497  -22.49265649000754   -1.55524203739797
C          -0.62929506220420  -23.20513863073581   -2.82568624602733
C           0.62611844916882  -22.44731228116759    0.31276864091384
C           1.55731553522930  -18.74087252440738   -3.91326681374896
N           1.17888380860860  -19.93808760324501   -4.56805293662181
O           1.45002895229960  -21.00956180245948   -4.05381448381853
O           0.61031888675631  -19.82433406347851   -5.63714033881571
C           1.72717562687442  -17.56904003711524   -4.70259902867321
C           1.56252752994573  -17.50299567655437   -6.10053288001506
N           1.48434372823508  -17.34668472680881   -7.23377854242063
C           3.40996595951772  -12.37285692294302   -5.47278660846491
S           3.10594797985841  -13.15691403926256   -7.00022178862861
C           3.61272376687061  -11.79470574671971   -8.02537942645345
O           3.59559529651895  -11.82410329722163   -9.21339386415011
S           4.15732564888518  -10.37148105628541   -7.09964162261209
C           3.90731433125971  -11.05579711476439   -5.51729463035650
C           5.88912379605130   -6.25212799741247   -3.31909861197124
N           5.32210319037185   -6.44150301170415   -2.03190245317175
O           4.37811406454779   -7.20032012201052   -1.90990349703059
O           5.81390017138563   -5.81150852927863   -1.11652879377679
C           6.69533652329936   -5.10322208344523   -3.55127323110336
C           7.01024817454444   -4.11988162854277   -2.59317829605283
N           7.31227607788707   -3.25121653427961   -1.90799034148823
C          10.18151086301084   -3.22672345943963   -8.30894598760409
N          10.65134980570951   -4.40140641565429   -8.84317441178566
C          10.23086783270226   -5.73021800374460   -8.48072984314152
C           9.06875404760306   -6.22297037623257   -9.34328608630235
C          11.59120492262377   -4.10892461999946   -9.81669634318092
H          11.81371110898739   -8.23283888024361  -11.58821840056182
H          11.30907567821018   -6.70135158653497  -12.45866824527035
H          12.79430171081727   -6.89969579604797   -9.79236273241283
H          13.73353692221534   -4.96627815277931  -12.24899186580976
H          13.97642192884890   -2.53655688482580  -12.40445795970022
H          12.70425273133272   -1.05195457218009  -10.87421561072238
H          11.17385517548124   -0.02253619686459   -8.99662107199843
H           9.58109704814005    0.40865038786219   -7.14164773785775
H           8.37037154394304   -1.43353740287690   -6.10634218788586
H           8.08101693142623   -4.80911250819975   -7.30168716883829
H           8.29846088666419   -3.21689681895161   -4.70085274457277
H           5.12996581620652   -8.54618967922113   -5.79166462953952
H           4.60092075166029   -9.03605977703785   -2.81313031341389
H           2.87527464272911  -14.26667158685647   -2.64417624508566
H           2.37958614879804  -15.08106824954367   -5.56563310507590
H           1.98158583669712  -18.74410077865947   -0.47997988702091
H           1.15434052737689  -21.20140955448418   -2.09259166445784
H           3.00838037302720  -20.11950074074020    0.82902027349044
H           3.29895566754468  -21.37609783676712    2.88735565836129
H           1.93554395476017  -23.40115956163075    3.33001812565613
H           0.17707846932963  -25.44192901019225    3.26340175025703
H          -1.66194597622224  -26.99808521149530    2.70230561324578
H          -2.97614096832465  -26.69307970391586    0.66014241404734
H          -2.51138262324820  -24.84993227851619   -0.89164623037500
H          -0.91256712686071  -21.41629136064231   -1.62895642278987
H          -2.16441132179872  -22.64629485649326   -1.42081936202174
H           0.42247240666467  -23.02113581243029   -3.02821391904057
H          -1.20517826183295  -22.84791744794353   -3.67518489262270
H          -0.77715195361843  -24.27794628964397   -2.72898409408015
H           9.95849574341385   -5.72687219908054   -7.42166933359080
H          11.07691887796174   -6.40660277875887   -8.60457612541449
H           8.25608096360950   -5.50008396842893   -9.35708808426908
H           8.69315825738384   -7.16755891475663   -8.95870711571360
H           9.40570707539617   -6.37300151972496  -10.36625049253313
