115
 SCF done       -192.654837652573          0.000503685896
C          -1.55188097499272    0.70248542857397   -6.14312649503190
C          -2.27278630292951   -0.44138069874688   -6.45984823550246
N          -2.46830493507618   -1.59073935024517   -5.72396742553399
C          -1.90671785063962   -1.77351297148924   -4.40978393114510
C          -2.81003843082653   -1.19831673522115   -3.32065301180131
C          -3.27083299134040   -2.44155002491817   -6.43720752675529
C          -3.57477497398213   -1.84057859550637   -7.69090948015240
C          -2.94392545539402   -0.55295461465721   -7.69641746634147
C          -2.88705651134606    0.47949403503259   -8.62322161169028
C          -2.16530249159895    1.61144166730525   -8.30284098558543
C          -1.50840195601995    1.71813227797507   -7.07869651049241
C          -4.33014280721949   -2.49908869510897   -8.64560563363683
C          -4.78244089992044   -3.77603475270679   -8.36264983818954
C          -4.48436694356521   -4.37355948704765   -7.15145452632368
C          -3.73675587405917   -3.73996133447449   -6.14924104505922
C          -3.52644047353889   -4.41757681493204   -4.89002001238438
C          -3.37973145405398   -5.75746677603224   -4.79563543118311
C          -3.26321762736746   -6.56245846164732   -3.62611444746781
S          -3.43066815538398   -8.27770311699759   -3.88062341389343
C          -3.32380592976229   -8.65288024219159   -2.18174348368353
C          -3.16997127360825   -7.48659062118053   -1.44947292357855
C          -3.11968566023751   -6.31535656198375   -2.26484515141577
N          -2.85880152933926   -5.06124955508745   -1.66213249492176
O          -2.26635126466128   -4.21796894514736   -2.31659344195851
O          -3.21701321228021   -4.90381654389145   -0.51146591122014
C          -2.98531496109054   -7.44899662200605   -0.05385182022063
N          -2.80204777159874   -7.45392567254849    1.07871131772881
C          -3.38575960333905  -10.02237915423823   -1.79841483730488
C          -3.43204102684035  -10.48585588741790   -0.53043621058761
C          -3.46007651135224  -11.86665479900639   -0.13233273372303
C          -3.66419934674510  -12.17334750420223    1.23706341943536
O          -3.86785618660400  -11.12324589141501    2.06474304697028
C          -4.02923086954502  -11.35452262585899    3.44505614511851
C          -3.65351105478180  -13.49595225700956    1.63767302002437
C          -3.43497924429648  -14.55614409985871    0.74747765619608
C          -3.25521782162803  -14.24768122916534   -0.62510817558678
C          -3.27186667020485  -12.92402827451602   -1.02632628206499
O          -3.08659596854362  -15.28334729712955   -1.48633803415629
C          -3.01246712802268  -15.04273826089850   -2.87888203994855
C          -2.92108749992076  -16.39707778717662   -3.56576890881814
C          -3.42362291385346  -15.87916591760077    1.30988251888108
C          -2.99348942888911  -17.00918052650248    0.70480110514251
C          -2.99244958387225  -18.34038193028940    1.21266267323463
S          -2.17934905527371  -19.50094792823080    0.19460750342768
C          -2.59629391544447  -20.85213279386279    1.20845672006622
C          -3.36620166428320  -20.41953314112977    2.27548880857135
C          -3.57501808259778  -19.00661996940713    2.28498281879327
N          -4.35561993552454  -18.44245181445937    3.32856795500721
O          -4.10132117178123  -17.31428442322576    3.71093173461227
O          -5.23420055861350  -19.14095050428441    3.79510570261578
C          -3.85337775182923  -21.27046943518411    3.28541253485023
N          -4.20561070827263  -21.99599540582895    4.10155298745379
C          -2.12856091020754  -22.14452553760659    0.82781949258922
C          -2.30650357433973  -23.29623849484549    1.50651415321787
C          -1.75652487428311  -24.56040074959459    1.06790706040504
C          -1.65707827035830  -24.97475220159820   -0.26987381422598
N          -2.22442823215880  -24.45050915486559   -1.41677697125798
C          -3.49408003637466  -23.75436184554593   -1.45098690157174
C          -4.56075198139560  -24.46087857584401   -0.61737481132458
C          -1.74789196029548  -25.18081160592789   -2.49613411884140
C          -0.91905843069337  -26.22622578150107   -2.03308335406693
C          -0.87132278925824  -26.10395141894066   -0.60382067424025
C          -0.26354502417730  -26.87226987427108    0.37682092866219
C          -0.45805156941518  -26.52531478999605    1.70187589762237
C          -1.19044554308119  -25.39789327438400    2.03441943354605
C          -0.34498094198187  -27.13007347885605   -2.91582121885794
C          -0.59794482847888  -26.97622098380121   -4.26396943082094
C          -1.37384493771146  -25.91981853800927   -4.72343390322613
C          -1.95081326274595  -24.98557678660453   -3.86720738543703
C          -2.64292163602926  -23.82081601112255   -4.42658211405650
C          -3.45598424877539  -23.86155899105160   -5.47308763844512
H          -1.03947596415753    0.80937684688337   -5.19943160885146
H          -0.93661230340587   -1.26949024716821   -4.38585645878912
H          -1.73226093933714   -2.83553657433657   -4.23182943197364
H          -2.87695673898021   -0.11624341171857   -3.40853371104139
H          -2.40897608711753   -1.45469351153838   -2.34493563135369
H          -3.81512249094304   -1.60720388084164   -3.39991187490065
H          -3.39914120843102    0.39613752331515   -9.56987216489125
H          -2.10778220030139    2.42906742748906   -9.00560668331588
H          -0.95367120096603    2.61742250925065   -6.85503872297050
H          -4.55601640455157   -2.02316204457921   -9.58731595879133
H          -5.37963821573334   -4.31115422039747   -9.08539045268327
H          -4.88576148011603   -5.35439738962401   -6.94609988941094
H          -3.51612469114610   -3.81244256509987   -3.99897842461140
H          -3.36559140209300   -6.33795226887495   -5.71022296827544
H          -3.41304947911259  -10.70790527559150   -2.63521821261554
H          -3.45701727048491   -9.78218592507289    0.28722113188314
H          -4.13857012660235  -10.36725104033547    3.89031655495022
H          -3.15379947738445  -11.85134301641167    3.87331311269679
H          -4.92496124820292  -11.94831812278471    3.65066724754938
H          -3.80261750322501  -13.74887612581280    2.67536869060327
H          -3.11424992641130  -12.68518863570683   -2.06430591996324
H          -2.12506701415503  -14.43894668507837   -3.11315525166932
H          -3.90858334084620  -14.50523885472091   -3.21698876561137
H          -2.02864494335469  -16.92317062128515   -3.23734668776845
H          -2.87759171313296  -16.26282563527413   -4.64253187905377
H          -3.79106429862903  -16.99846018730888   -3.31598003884194
H          -3.76685324259488  -15.93067346804511    2.33335861725393
H          -2.56905082702739  -16.93655112808688   -0.28540459391239
H          -1.53658546364959  -22.15768056233440   -0.07901400910720
H          -2.78851725434348  -23.28694090459103    2.47325871507752
H          -3.82164684129554  -23.73181144204162   -2.49110712928536
H          -3.38227565057394  -22.72301455790441   -1.10096265914799
H          -4.62973566459186  -25.50778014739323   -0.90481317007168
H          -5.52450273158792  -23.98803793541768   -0.78678106065055
H          -4.33377943044990  -24.40620541034845    0.44405010924672
H           0.33377549031266  -27.72966015424850    0.10766101444914
H          -0.02009342419079  -27.12322933955559    2.48651506545329
H          -1.29148995265198  -25.11679657311138    3.07239466698162
H           0.28646842161360  -27.92602400842859   -2.55242424644746
H          -0.16882758694560  -27.66474966768375   -4.97632378591330
H          -1.50693468054964  -25.78804292539948   -5.78687835376396
H          -2.41372957765164  -22.87077820260632   -3.95735369213520
H          -3.71442952871835  -24.79004280421734   -5.95431000113910
H          -3.90760892095043  -22.97119809903879   -5.87621430777805
