99
 SCF done       -179.078333875777          0.000848397071
C          -8.15854415964943    0.21309944783078   -3.57762715154246
C          -7.22699833087687   -0.24264877162976   -2.65493538208208
N          -6.62683996516420   -1.48159373000143   -2.55018782352332
C          -7.00057264757992   -2.58917985297509   -3.39418564704988
C          -6.23439022033045   -2.60596919653090   -4.71553451450755
C          -5.75801085504277   -1.46198143782120   -1.49207883162787
C          -5.82731101674118   -0.18823725809166   -0.86343684908342
C          -6.75432751704797    0.59871473784009   -1.62553595708296
C          -7.22002529811899    1.90188288560452   -1.51509198283226
C          -8.14669192001561    2.34889615119535   -2.43582900641407
C          -8.60732214564140    1.51412281665161   -3.45134674607043
C          -5.10530364192465    0.08616309731727    0.28433448157565
C          -4.31612830646383   -0.91625098830676    0.82600578623594
C          -4.23785872356639   -2.15613223535077    0.22114178275988
C          -4.92345406738277   -2.46763613064525   -0.96285305851222
C          -4.69724020867702   -3.72511036489416   -1.62341454401615
C          -4.37436148818122   -4.87866884398467   -0.98942223551940
C          -4.17869431880560   -6.16403311742669   -1.56037792207234
S          -4.02692023444846   -7.46565647088259   -0.40901213485630
C          -4.01569845877303   -8.69050999291212   -1.64688364816905
C          -4.11732486130274   -8.10285252348532   -2.89890978686081
C          -4.19106929842374   -6.68546994543345   -2.85863099879274
N          -4.24353992939365   -5.97398411373858   -4.08458254563906
O          -3.84409218488110   -4.82332318551767   -4.11670623426658
O          -4.67676268385284   -6.57132317999253   -5.05035034088008
C          -4.09012523425900   -8.87388922767831   -4.07971925572127
N          -4.02786861949810   -9.57148684089844   -4.98678958270949
C          -3.95769738509138  -10.07801676161532   -1.36661214927503
C          -3.83077682049261  -10.59392697890786   -0.12182406537681
C          -3.85590552048687  -11.99310832112078    0.15566320474935
N          -3.68432778845305  -12.37752782983878    1.41027221998483
N          -3.79693861070774  -13.61192948491170    1.81134743209037
C          -4.11186815290455  -14.60811784533055    1.00730230939378
C          -4.20228201552926  -14.35907536369674   -0.39228328661588
C          -4.06986758063432  -13.00066659198617   -0.83830587924953
N          -4.12393927639059  -13.02067372725067   -2.15450897785492
O          -4.26497108610608  -14.29516558823400   -2.49928599821005
N          -4.31190084058920  -15.11938855408274   -1.46277762688804
C          -4.32777378352835  -15.90832735994866    1.57695530522937
S          -3.37646868917937  -16.43994979968216    2.91881021221330
C          -4.17210677282901  -17.99092198054706    2.94977357271660
C          -5.14311331580630  -18.06627359893404    1.95659386993099
C          -5.22953527535053  -16.88025983828654    1.18711422012228
N          -6.24755150010891  -16.69201760446234    0.20332156143432
O          -6.59885614276113  -15.55027320694463   -0.02066659899193
O          -6.70947490053806  -17.68254306411436   -0.31334919044030
C          -5.96748454818082  -19.19573118416977    1.79888175085392
N          -6.61216311193852  -20.14205848712789    1.74542018864832
C          -3.84178530830342  -19.01571882966586    3.87615534140605
C          -2.85583510064005  -18.90309797370853    4.79179563439398
C          -2.53577287302075  -19.90730991769414    5.77899699914294
C          -1.24157197158856  -20.16071125053097    6.27322643935269
N          -0.01456190414141  -19.70041485022939    5.86536183502003
C           0.22615951293082  -18.74389249932427    4.81628233039053
C           0.25399533835462  -17.30883372125905    5.34228962643337
C           0.96710860884158  -20.27923390441489    6.65114827134675
C           0.35375865990809  -21.14220594083548    7.58755517696980
C          -1.05465449652456  -21.09457177867107    7.32463414718039
C          -2.11941512970918  -21.78680833659160    7.87651013569156
C          -3.38544608236807  -21.56493400296020    7.36395826297238
C          -3.57950197424549  -20.65547599523663    6.33986027142256
C           1.10160287721543  -21.83855906274854    8.52699008269152
C           2.46786414550941  -21.65468270461101    8.53749063733590
C           3.07321935077269  -20.80914519400292    7.61459722775487
C           2.35577879023199  -20.11783122257023    6.64556348122422
C           3.11540192454137  -19.29049241811051    5.68734855071153
C           3.75449482138905  -18.18496237244253    6.02921274419604
H          -8.52550249522871   -0.41459722221202   -4.37489109372041
H          -8.07284345196181   -2.50084314338260   -3.59803155571798
H          -6.84511572874801   -3.51916467041977   -2.84039428576294
H          -6.39308740492359   -1.67392625372827   -5.25239548392419
H          -6.58477059377137   -3.42847883840047   -5.33366272541600
H          -5.16558079651072   -2.72885470331094   -4.55787544643565
H          -6.86188446648531    2.54813902786081   -0.72840304735346
H          -8.52151997760461    3.35928145148404   -2.37317718907538
H          -9.33077050376160    1.89278032104131   -4.15785415935023
H          -5.16297254098332    1.05925947362079    0.74672965890127
H          -3.74362142467798   -0.72611352636656    1.72095745228357
H          -3.57510741216445   -2.89785572941721    0.63918043073057
H          -4.74880949463131   -3.71345372683673   -2.69811070493335
H          -4.32336920660386   -4.88156859278042    0.09239636560665
H          -4.03734869926700  -10.74028173821645   -2.22003848822940
H          -3.72453202173910   -9.95365796960747    0.74348542119676
H          -4.41334972601636  -19.92900042398372    3.78229604071953
H          -2.30199491848159  -17.97457428057007    4.81555030185899
H          -0.55075108694284  -18.86676654276917    4.05650203325946
H           1.18621465667110  -18.97184047782399    4.35273084206693
H          -0.63580278698419  -17.08828845533279    5.92769439118843
H           0.31181826527378  -16.60866649604801    4.51321291569326
H           1.12329739567105  -17.16602842168605    5.97990943969110
H          -1.95803003082531  -22.48831030105684    8.68002832243263
H          -4.23376055616698  -22.09453835952351    7.76929077595727
H          -4.58278667798840  -20.47206923792797    5.98726218699087
H           0.61893123888950  -22.49678697003202    9.23244590004746
H           3.07983424480618  -22.17007724381595    9.26197349423912
H           4.14656346411004  -20.68853509714507    7.63283768467195
H           3.18960500354579  -19.67520777432134    4.67605868546531
H           3.71158761741909  -17.80003076175738    7.03516444947833
H           4.34015038056829  -17.62102989723477    5.32314824645797
