92
 SCF done       -155.182082522346          0.000845860007
C          -8.32430071735834   -0.83560149637111    3.11314024144302
C          -8.80277875504421   -0.72709903401690    1.84385358684884
C          -7.79108881631352   -0.15183114331141    1.00635920141818
C          -6.66393077201458    0.08906473025292    1.75658628924541
C          -6.98615194215274   -0.30799004585559    3.13884410359534
S          -6.10358092987973   -0.01742337734012    4.49479386504964
C          -5.45679953188534    0.65712752736869    1.28311406820897
N          -5.45858512695412    1.46357296352010    0.22600757187796
C          -4.20131381490182    1.91352478192685    0.09964311210399
C          -3.32735646941925    1.36688440515518    1.15243689756874
C          -1.94918711331933    1.85756089272476    0.98191979986717
O          -0.97503418577064    1.63534533229720    1.67318113083004
C          -2.05162081372302    2.69097476315863   -0.22480308587504
C          -3.43696864957573    2.70715339957438   -0.72715484727502
N          -3.52854106000391    3.44866819372273   -1.85525564061026
C          -2.30709850013306    3.87710860022992   -2.08389782649947
C          -1.33599270987344    3.43375396459047   -1.11384923890013
C          -4.10821192785735    0.51301964941995    1.88651845856416
C          -3.73419349032363   -0.41058011618810    2.91012417768290
C          -2.60710264855476   -0.24668103595223    3.64336419378413
C          -2.09503817688531   -1.13029566997544    4.64783483221548
C          -0.85668625620529   -0.84209753430044    5.19856789130314
C          -0.29170467452181   -1.69250477208800    6.15944579923154
C           0.92408841738593   -1.62886505208256    6.83866473959677
C           1.97911514376096   -0.59541822546573    6.63962842025746
C           2.17647957788331    0.25895497717128    7.90868704709444
N           2.93675869843932    1.45074549927839    7.58884763447059
C           3.29787512685218   -1.23118413314177    6.16038281433408
N           3.01639647613714   -2.32455951156084    5.24033313787081
C           0.98222110934786   -2.78379230875988    7.69956755132757
C           1.91069371649275   -3.20663327172810    8.57809021453215
C           1.77737800932316   -4.49926678232978    9.29930943053415
C           0.48804431428898   -5.22436390790679    9.05730204151233
C          -0.44802216898339   -4.77052477112159    8.20196315718748
C          -0.24937565861128   -3.56125452572389    7.49780671008512
C          -1.02219213722394   -2.87923647645668    6.57470445858104
C          -2.29548945559859   -3.13870553112334    6.02101624451531
C          -2.80889202981175   -2.29023595498369    5.09183958975038
C           2.87439256215990   -5.45501695553181    8.90784570589912
C           3.64685593035870   -5.31475313323099    7.82203847624671
C           4.67488656252294   -6.26101380136725    7.50967367276879
N           4.76349792766063   -7.42898565967310    8.11990880786643
C           5.82685628263521   -8.05497357488425    7.56956615405353
C           6.46136628210546   -7.22520619217514    6.53689069400122
C           7.62882864931804   -7.91672879527953    5.96839822242838
O           8.38831329649384   -7.53592619064317    5.10391343740781
C           7.64837847777599   -9.18727728215076    6.71907462514817
C           6.52996617397688   -9.22961906345899    7.68254423045723
N           6.55168753821886  -10.38594572600339    8.39088843425227
C           7.59164475887551  -11.04354170939497    7.93847666246007
C           8.32458526949397  -10.35072178407378    6.89806892731734
C           5.74150081088843   -6.05327945703848    6.49729092177479
C           5.93740168342821   -4.86048111107959    5.75656253901147
C           6.88162850372643   -4.72075727781914    4.78842552547167
C           7.12851886639247   -3.52019541713302    4.07807246397066
C           6.68300395420262   -2.24351377629867    4.28686785061922
C           7.23903075056246   -1.37140735834216    3.28323023887680
C           8.03061181314919   -2.08801044974154    2.44707774678128
C           8.02021475981936   -3.45885053756128    2.88842600113393
S           8.81294324811725   -4.71555301756196    2.21540073682289
H          -8.83824641211459   -1.19315099661900    3.98479219213830
H          -9.78021828624341   -1.01487061488182    1.50215469467585
H          -7.87842256339465    0.03107664349383   -0.04776010698915
H          -2.10447546916140    4.50556610912369   -2.93383302605294
H          -0.28868098940739    3.66354725158409   -1.12529517792440
H          -4.35327258640588   -1.28949693140268    3.01921969913911
H          -2.00901367100622    0.63466464881562    3.45374405460735
H          -0.32689786278143    0.03995869124353    4.86954785499219
H           1.64030273773488    0.09051132502647    5.85779202491524
H           2.63175224226016   -0.35717304589820    8.70141985760623
H           1.19088976086461    0.57759563129145    8.25880754938975
H           3.91095258143625    1.22875303762773    7.41983568676260
H           2.89357807021960    2.12319834759403    8.34463401454265
H           3.84858172826517   -1.65193215340595    7.00957687544994
H           3.92002632335525   -0.43771966263588    5.71501874578758
H           2.35751712146615   -2.01954811178509    4.53143418561260
H           3.86041351035908   -2.61516159628611    4.75606347890675
H           2.81409939198869   -2.64890571748285    8.77622260936302
H           1.88020025620026   -4.31224622539906   10.37951526579002
H           0.35898243995731   -6.15292499882687    9.59087390861124
H          -1.36368466323657   -5.32259936259708    8.04803794201619
H          -2.84996631054550   -4.00785687889277    6.34278803349982
H          -3.78682948813699   -2.48198510833092    4.67961137921475
H           3.01666973921659   -6.31824936006418    9.54220462504063
H           3.52149130217292   -4.47256583198392    7.15577688282318
H           7.83789844173014  -12.01167418534931    8.33908853723829
H           9.20321419775155  -10.71624353634185    6.40437933047135
H           5.29173389889678   -4.02688767068210    5.99594246861381
H           7.49454987258586   -5.57189123968667    4.51695581410097
H           6.05023769003943   -1.90436011341603    5.08690538665114
H           7.03971108866505   -0.31598098672469    3.22818143752296
H           8.58301974834970   -1.73696408927950    1.59755392733934
