84
 SCF done       -154.962319369614          0.000475803870
C          -2.68092377980468   -5.87532897777347   -3.63705071919495
C          -1.43067761320458   -5.73883243088118   -4.11065343520654
O          -1.10314465152552   -5.99255238255323   -5.43417808147204
C          -2.16918446958291   -6.33416426136677   -6.21621874624985
C          -3.49205572513085   -6.46830791525663   -5.69354673355787
C          -4.39699242517885   -6.82010684252894   -6.63979671113053
S          -3.65373659528597   -6.99376974309989   -8.18483713498945
C          -2.10440675526006   -6.58426766302064   -7.54580843305880
O          -3.77349998725083   -6.24549883593990   -4.37477585726154
C          -0.31613295029491   -5.35728438516783   -3.27185846645055
C          -0.14399572588415   -5.70732661707857   -1.96480360781450
C           1.15234968175673   -5.23985146036873   -1.53348458546199
C           1.67037394454985   -5.39548837318253   -0.24355377726787
N           2.10600363294540   -5.53997268839292    0.80966691539877
C           1.78865480079129   -4.64676571946495   -2.59602230497395
C           0.89635666403776   -4.66163051732077   -3.71667552313578
C           1.08272388817038   -3.97288214755452   -4.90066226880870
C           2.37666016969114   -3.48256613412869   -5.44382889875972
C           2.08153381722740   -2.56440250195626   -6.42649888906223
C           0.66272973547164   -2.50232063105121   -6.57630851494685
C           0.06618776032447   -3.38150811062986   -5.68843426239558
C          -0.01257285390288   -1.67446342245539   -7.48237666194348
N          -0.56388511837010   -0.99858192068405   -8.22908965167148
C           3.66941627287172   -3.96712767593806   -5.15570786495043
C           3.95824368616693   -5.16772936087620   -4.57151936341033
C           5.25318359383723   -5.61786241851004   -4.25080737109969
N           5.45602832288120   -6.88597856992622   -3.74295907525080
C           6.78064119346720   -7.05175801452557   -3.49804358036892
C           7.72966643449437   -7.94570481551389   -3.03650337197236
C           8.96746998853885   -7.27558103389744   -3.11167505207494
N           8.76456961738387   -6.00379993294367   -3.60931016864038
C           7.44031907794321   -5.83961469426155   -3.86251789026096
C           6.49241841200941   -4.94900117759765   -4.33158063845643
C          10.26286296914567   -7.72411353203702   -2.78278629789471
C          10.55342253160794   -8.96595789136685   -2.29824493915558
C          11.83557654733360   -9.46723990632993   -1.98360057104163
C          12.06664545062113  -10.52084765072833   -1.12639618834768
C          13.47051615067006  -10.60823140923327   -0.87686224174812
C          14.08278599267713  -11.57225568303632   -0.06587578962059
N          14.58118900257950  -12.36138664932008    0.60305709400787
C          14.12005186812549   -9.59766521247608   -1.56253941143690
C          13.15621298787467   -8.88847931741366   -2.32711615905663
C          13.44387235376792   -8.00775555552137   -3.35453779773691
C          14.67707273498297   -7.21338150406363   -3.53069314948597
C          14.66899642938612   -6.72704680200946   -4.81243586413856
C          13.45999212848763   -7.15394959967473   -5.45876154305672
C          12.70594403147333   -7.88830561144473   -4.56692380872226
C          13.10392256960416   -6.85358136473890   -6.77818861673987
N          12.80063832811360   -6.58916449386983   -7.85426418814295
C          15.62744552974800   -6.85213940466250   -2.53248448021205
C          15.40820144271383   -6.88365543538161   -1.19892908894403
C          16.34388498215768   -6.54030513098255   -0.17000673984817
C          17.64905832063476   -6.24355902038057   -0.35184153732873
O          18.53627081357233   -5.93453391587390    0.63448080318960
C          18.00019937686684   -5.96539420538465    1.89220689226082
C          16.62486871601905   -6.28035736400018    2.11426325273236
C          16.29116665125460   -6.25847782455269    3.42700517986301
S          17.64719622371219   -5.85423669610232    4.41424502548698
C          18.67596566788128   -5.71277755588902    3.04057820130500
O          15.76691695085639   -6.56481601279143    1.09215103983936
H          -2.93600706205714   -5.66636095026276   -2.61353278462447
H          -5.44680560050038   -6.98457339941640   -6.51622672621009
H          -1.24355558861369   -6.55264285698208   -8.18004339052500
H          -0.82470652733201   -6.25949920374378   -1.34534753765819
H           2.73797709014336   -4.14844133339936   -2.56364830555998
H           2.78485816514988   -2.02522917044063   -7.03308712553836
H          -0.99068332829313   -3.48112751942539   -5.53618005502983
H           4.48798311216628   -3.35351204958016   -5.50893432867546
H           3.14701125006019   -5.84660842744694   -4.34343880761502
H           4.72397764118364   -7.55521845907510   -3.57737666765914
H           7.57883961954240   -8.94493438712830   -2.68300728080158
H           9.49732473882204   -5.33610732802680   -3.77839782621226
H           6.64117848343305   -3.94909067348794   -4.68445688449888
H          11.06419503760614   -7.01210684111373   -2.92857041858317
H           9.73177498911670   -9.62887200139646   -2.05988668608668
H          11.32494533088407  -11.15154936572834   -0.67309747892248
H          15.18277159810882   -9.46193030585269   -1.61926028705089
H          15.41055295440327   -6.09610392711012   -5.26570279824202
H          11.79223733611711   -8.40384084955952   -4.79364693415945
H          16.56027674941410   -6.45699548270570   -2.91259957755572
H          14.44020421823667   -7.17565703697037   -0.81689445911373
H          18.11134307196797   -6.22839951224418   -1.32262902615722
H          15.33657655486430   -6.45681118201002    3.86702740151736
H          19.70827137009465   -5.45568161199035    3.15345963463799
