88
 SCF done       -146.770488113301          0.000280044626
C           7.14093395515224   10.95709403282115    4.06766003097591
O           6.58543439782698    9.74273159065045    4.07940926174096
C           7.47456788155995    8.88594739300114    3.52809603662722
C           8.61271411818887    9.57969062017809    3.16135159724944
C           8.39518233990753   10.92777557459540    3.51423982257531
C           9.33088277988650   12.06829242876054    3.32350390446337
C           7.16124048800441    7.50440880563314    3.41676373629075
C           8.02399410383685    6.50223480509134    2.78683858989167
N           7.54872746006279    5.29129208581011    2.81692084098422
C           6.34822194804380    5.38736756359104    3.45788277176726
C           6.06689858219670    6.77894069667080    3.83367137139760
C           4.81291796287252    6.85169417651598    4.54081847097461
S           4.13471168982929    8.19963755800732    5.20223017933189
C           4.34072492266043    5.49023460251935    4.58499951106637
C           5.31290346006343    4.61256684515350    3.91511212414545
N           4.92684426329186    3.30733317829616    3.99786964405246
C           3.83207826161427    3.31625557661049    4.70300591453450
C           3.38897397915988    4.64493872787387    5.12468965963408
C           2.21971326315541    4.92849484811817    5.90585345688885
C           1.61351908820195    6.16590219943571    5.80878289816962
C           0.50318595561655    6.46667181944088    6.61002193112148
C          -0.23259897355377    7.64429522283033    6.72259451982614
C           0.08269006351327    8.89899711814803    5.98786594420747
C          -1.14039687499569    9.71172448032587    5.53634423087130
N          -0.79087713346611   10.43646426830733    4.32900594934928
C           1.04799751100686    9.75801170447944    6.83503214069754
N           1.60503529351787   10.83001640759236    6.02420188631457
C          -1.23546593560778    7.40381066584012    7.73342467537411
C          -2.19830564388493    8.19079554868993    8.24987785387703
C          -3.13777622142740    7.69753362335370    9.29834706577385
C          -2.88811687878948    6.29952697930999    9.75477767833723
C          -1.92582993236138    5.52025494563457    9.22716591820773
C          -1.07538616254334    6.02057032122221    8.21330765799809
C          -0.01370875991355    5.46400490544215    7.52611172196386
C           0.60323966089098    4.19268459664751    7.57718554612162
C           1.68138295299721    3.93820773012282    6.79106691515603
C          -3.15852100276599    8.70842594223713   10.41923563415384
C          -2.58833251428703    8.51445884848015   11.61162473177743
C          -2.60234595354160    9.46863767504632   12.67891214665518
C          -3.22330423071770   10.79512793665988   12.69842169750993
N          -3.08172703461922   11.44209923803218   13.82127772765442
C          -2.36570191243862   10.60930171602433   14.63128057827879
C          -2.04693811604747    9.35717023234236   13.93143245739620
C          -1.29639416589021    8.48008975565153   14.79820579128878
S          -0.74769048600860    6.97561670793073   14.42357135362215
C          -1.16817465526603    9.22035831984701   16.02716339162075
C          -1.83810306188217   10.52525824958953   15.89329642964439
N          -1.73737401889707   11.24148594503121   17.04973449839967
C          -1.06886160402739   10.48537323349534   17.87071879032984
C          -0.66853762359415    9.19046627209088   17.31340526060544
C           0.06643399983862    8.17380222751520   17.98136213311422
O           0.36700132806028    7.04574724005953   17.29064171278669
C           1.04782774801604    6.24106230098771   18.10147926466065
C           1.20857302154299    6.81446253494556   19.33084060297563
C           0.57657783973752    8.07429888440308   19.27289213543765
C           0.49883248516499    9.05276729758291   20.38984102841152
H           6.56454172952169   11.76579070599293    4.47269517398632
H           9.49020623235159    9.17156733459744    2.70320862743770
H           9.55476594313419   12.20141399557554    2.26612139950941
H          10.26892861487851   11.87905712110019    3.84312589807510
H           8.89375092025579   12.98546091881855    3.70860438072441
H           8.97007913776808    6.70751549024532    2.31878957007312
H           3.30663164421440    2.39639480371719    4.89331967983766
H           1.98983189851765    6.89524287276556    5.11053554173640
H           0.61873195626655    8.62890930463349    5.07202081924199
H          -1.46565389389475   10.37686253237470    6.35415823846738
H          -1.96551882006742    9.03223466957536    5.29572065349315
H           0.01338410276960   11.02506897028432    4.53142391825403
H          -1.55795754087973   11.03064351153754    4.03333524422693
H           1.82092272672619    9.09553309597786    7.25597255130886
H           0.49795625023666   10.20620950118820    7.66853332990747
H           2.23416395181346   10.42916345812956    5.33345706930206
H           2.15793003648431   11.45087842912589    6.60640712391265
H          -2.32917602511231    9.21568524887619    7.93642772151528
H          -4.14580947241645    7.72151901599313    8.84798503601695
H          -3.54049113363538    5.93377881076316   10.53298714282242
H          -1.78382675613921    4.50793397532483    9.57588215458324
H           0.21929993924669    3.43925853563817    8.24907255584240
H           2.17178525158353    2.97801346294540    6.84254498813275
H          -3.65019921427518    9.64278407381593   10.18703556053398
H          -2.07917937631306    7.58409852312249   11.82694984279050
H          -3.76186425961742   11.24883589179438   11.88503628584493
H          -0.85305621013691   10.83244082821341   18.86385233422511
H           1.36568507552496    5.29649200008854   17.70544700328450
H           1.71458661415392    6.39378387532005   20.17577387141300
H           0.99975541793618    8.64810513789213   21.26561485282211
H          -0.53784980802703    9.26258394133703   20.65040495193623
H           0.98191115824480    9.99067575853431   20.11857765442959
