108
 SCF done       -210.873442735552          0.000713250135
C           4.79320380329300   -6.07135769154006   -9.19970632578310
C           4.46415244148796   -7.21053239309942   -9.92030823891419
F           4.05596121181551   -7.07830644127336  -11.18804345139595
C           4.54709954250136   -8.48383703700229   -9.35818003443435
F           4.21891967238386   -9.55587059721160  -10.09097494136421
C           4.96515536407659   -8.65029065006127   -8.04746796968941
C           5.29103415170593   -7.51621677098339   -7.33154747532827
C           5.21174215467799   -6.22897645354566   -7.88804467105902
C           5.61990386277039   -5.25236930304775   -6.87517056071765
C           5.67963023730189   -3.89615090130348   -7.07358535297192
C           5.34609664430743   -3.25926045921862   -8.28750360269866
N           5.09596589755813   -2.67715369507127   -9.24479344384302
C           6.07797424850409   -2.93727681744723   -6.11911473898394
N           6.38552443760409   -2.08964956555715   -5.40692511486843
C           5.93910195235948   -5.98694436372598   -5.67002822197190
C           5.75404886055444   -7.41497811005993   -5.93069561576588
O           5.93577057730514   -8.34805038055572   -5.16935666476402
C           6.33170557651338   -5.43521904127002   -4.47095652815531
C           6.64189604992804   -6.04270023406369   -3.25183757996985
S           6.64641148931236   -7.75258769987314   -2.88552532013991
C           7.10514499820393   -7.43329186012180   -1.24498652161812
C           7.24707481699686   -6.06850348773114   -1.00102650170056
C           6.99395531469019   -5.30210839167863   -2.11528623517918
C           7.28076152096985   -8.48471453077484   -0.31889502565937
C           7.18674926719761   -9.84462662352665   -0.55358346984100
C           7.39782942792743  -10.61961681146997    0.57941059184726
C           7.65485492484789   -9.87493423774325    1.71706016050737
S           7.64524273828028   -8.17280374333169    1.36052540128585
C           7.87677635927216  -10.34836540135913    3.03223577964099
S           7.88570310841092  -12.05396400055221    3.38227037707602
C           8.13936253542466  -11.75771853323867    5.08109406259597
C           8.22140307562379  -10.39801270062705    5.32641086261775
C           8.07753027353847   -9.61498802631022    4.18627047467487
C           8.20031848359928  -12.86164345316936    5.96902713565515
C           8.26632931606851  -12.77780977418580    7.32124852793364
C           8.27427755195887  -13.89487541612551    8.19452198331031
N           8.21861292095369  -13.72506739300422    9.56482019548167
C           8.18442630305118  -14.94868791607973   10.15458294305861
C           8.08914201102364  -15.61228621805951   11.37328449159045
C           8.09340055117407  -16.98056971194342   11.07338318901056
N           8.19941082556883  -17.14753273554428    9.70679446380385
C           8.24302475986170  -15.92163306177785    9.12406182695675
C           8.29799309891959  -15.26390596036334    7.90049555235463
C           7.95949048511732  -18.05260062051896   11.98946400137989
C           7.98726486379985  -19.37382660617412   11.68345226138544
C           7.76322887740475  -20.42158278751196   12.61108995875319
S           7.33956300005966  -20.12826122674785   14.27617619525713
C           7.19128432420416  -21.83745352706188   14.58725887430571
C           7.47599053347812  -22.56913396985928   13.45160520950640
C           7.79317819058982  -21.77990270459835   12.35103688287804
C           6.78506809604241  -22.31829644873580   15.85520800684445
C           6.47405702339078  -21.58918502944229   16.98789474546021
C           6.05809674716185  -22.37464442986938   18.05706812320326
C           6.04106177597383  -23.72862169740408   17.77303281528909
S           6.56732779311819  -24.02068775881276   16.13686729657546
C           5.63960291710066  -24.79437582274493   18.61430019057532
S           5.72826760165227  -26.44427294300791   18.09210704847934
C           5.03605848465246  -27.01203507378481   19.59244146482736
C           4.78072509789406  -25.94089020367179   20.44086154871858
C           5.11897628144846  -24.71180533494228   19.90051978283098
C           4.82866391625199  -28.38838345273974   19.79642210445033
C           4.13943349459989  -28.92386194463041   20.84898800004949
C           4.00582144472972  -30.30904375070434   21.01282978571168
C           3.34686613376594  -31.01051063736165   21.99087296515111
C           3.07037947769711  -32.44582015159658   21.74669059084887
O           3.53947166101525  -33.14074529995368   20.87348105801885
C           2.06585307312413  -32.83181554345894   22.76308835123706
C           1.82453887010915  -31.73867289575404   23.61230881249461
C           0.87693556093402  -31.84379997356935   24.61764780849670
C           0.19965980360263  -33.04712292120919   24.75229457728296
C           0.45780372092637  -34.13153095056694   23.91481710220953
C           1.39965048732419  -34.03260696549065   22.90319857003478
F          -0.21600877647152  -35.27659871687433   24.08516878298209
F          -0.72851235279186  -33.16310835764055   25.70997982394728
C           2.71000042001474  -30.63198539853392   23.22859466327187
C           2.97611311390127  -29.55176921989766   24.03246519613748
C           3.98343078694523  -28.58789933869610   23.82618317533225
N           4.79466522224110  -27.77723795137556   23.76021965954121
C           2.31783848956865  -29.29933825205239   25.25504393915856
N           1.81244271161676  -29.02099529655832   26.24769644137086
H           4.71075653808499   -5.11157721422141   -9.68227706588803
H           5.03074892428786   -9.63253170186218   -7.60756450513646
H           6.40974109734401   -4.35531224642449   -4.43701178019621
H           7.52709578242526   -5.67729506468267   -0.03856406696666
H           7.05078088068327   -4.22778030884074   -2.13655414983270
H           6.96809657380576  -10.24089232523568   -1.52922380122047
H           7.36288057918131  -11.69455147158160    0.59492192071345
H           8.38423669774077   -9.98852460566545    6.30664960785536
H           8.10919658528842   -8.53938111510978    4.18196075238187
H           8.15869220246597  -13.83704370290703    5.50650467000976
H           8.28486702396996  -11.80387941684621    7.79229224731465
H           8.17651603685054  -12.83330696486660   10.02711650196114
H           8.02118539001642  -15.19458050758657   12.35761358905327
H           8.20440505513546  -18.03404534572244    9.23508268071460
H           8.34993885483921  -15.69575220017299    6.92214503471878
H           7.80145616045594  -17.76520850302763   13.02039502813242
H           8.17572889570238  -19.70226374574037   10.66950895610413
H           7.44182482332197  -23.64444589132444   13.43792375563314
H           8.03540113595847  -22.17715702531637   11.38127654961518
H           6.54703563204705  -20.51645850144168   17.01740507785896
H           5.77513092645915  -21.97524410397980   19.01370138779841
H           4.38987341916281  -26.06792630233116   21.43416302749565
H           4.99164262947470  -23.77755747425971   20.41596070483753
H           5.25168652134214  -29.05753465849771   19.05758581902594
H           3.66739487115050  -28.26014768672516   21.55382263080253
H           4.41613608590787  -30.93479934658714   20.22566969062327
H           0.63550679933399  -31.03606832118334   25.28865016776809
H           1.59932216566771  -34.86659245008205   22.24959534192972
