132
 SCF done       -249.873561929550          0.000429313338
C          22.41362705741665   -9.74094688383390   -5.08806404136692
C          23.22910066341487  -10.86275471437015   -5.12841840581733
F          24.31484392359976  -10.84506448185981   -5.91029743857276
C          22.94630388468463  -12.00296990970909   -4.37690860674334
F          23.76154479600601  -13.06293014953176   -4.44671937447939
C          21.82931894008300  -12.04890132244984   -3.55807155456669
C          21.01928404006579  -10.93198846452020   -3.51846100118339
C          21.29453267589949   -9.77852224535448   -4.27142994879273
C          20.25239611760909   -8.78354719029651   -4.00703589045006
C          20.18910193172550   -7.54157015221845   -4.58521025120526
C          21.13260969545358   -7.05232873391646   -5.51347666762571
N          21.86117467982159   -6.59355111199940   -6.27244287619610
C          19.18960557466947   -6.57263577406156   -4.35694088862888
N          18.41979023277363   -5.72888907291543   -4.23323805251520
C          19.33245619492364   -9.36464290589871   -3.05199139271969
C          19.78314446087660  -10.72090862834979   -2.73506272905450
O          19.26588281908587  -11.52797884903209   -1.98421839952891
C          18.22855569362736   -8.74164892126244   -2.51630732621575
C          17.28595689771015   -9.20203962133891   -1.59279275454517
S          17.21956106657868  -10.77588345568742   -0.83372786176843
C          15.79818431725353  -10.32631951821918    0.04814538955002
C          15.40149172060413   -9.02087324767868   -0.23411032163935
C          16.22633119744506   -8.40211905078518   -1.14560703729727
C          15.17195313554426  -11.22796739345098    0.93846367696072
C          15.52560287305105  -12.53581000272773    1.21276115392452
C          14.70070012759074  -13.14928017523195    2.14903192554373
C          13.69522695962696  -12.32575972435700    2.61939196274289
S          13.77544088983385  -10.75752181692444    1.87411507177198
C          12.69764889626092  -12.62200230620795    3.58242405140348
S          12.58804717562567  -14.19426027454098    4.32025675948287
C          11.23145356753918  -13.70036064035017    5.29143233759621
C          10.90347504195381  -12.38505428750105    5.03230221288379
C          11.72014823788943  -11.78351044455693    4.07752172928168
C          10.63450556576212  -14.63298757236669    6.19367539527762
C           9.66050652536442  -14.32222634192955    7.06864438564285
C           9.01034528775119  -15.26926841166850    7.95406184473512
C           8.81381701823423  -16.59678624506558    7.54526661750502
C           8.12493721206191  -17.51393738707258    8.30990929308912
C           7.59187692466583  -17.14719513759594    9.54110420151740
C           7.79167710618875  -15.85825462258052    9.97801390886552
C           8.50058323228220  -14.92338197153453    9.21011471966570
N           8.59938187037046  -13.73119509665062    9.91580858150919
C           9.38280682875942  -12.57104181577455    9.58230866615190
C           7.99475269028065  -13.82158861370243   11.14034351354071
O           7.94705553349881  -12.93557220712149   11.95947001285255
C           7.41011814266008  -15.22256243267969   11.27770317938292
C           8.05717320109949  -15.91746024610434   12.49179660025182
C           9.49033384634679  -16.31844960423716   12.13787887367896
O          10.37890784085531  -15.59657182891747   11.75051569475838
N           9.59584818165420  -17.67157477589637   12.30245178462624
C          10.79456359419973  -18.41111474942146   12.01708606259511
C           8.39652664829730  -18.23137780109379   12.71966001075106
C           8.10682194222804  -19.55336645210426   12.97627868490675
C           6.80550206494622  -19.88530783154802   13.38257249500666
C           5.84967772226991  -18.86978952842271   13.50895207767006
C           6.15265442790031  -17.54252240241860   13.25168485062244
C           7.43231072798242  -17.22339349083275   12.85548686202937
C           6.39907493324595  -21.24050760067786   13.67945886789631
C           7.18816169990826  -22.33159987157516   13.71869610132749
C           6.72797976157356  -23.64679371823820   14.02703743651658
S           7.86954832131388  -24.95815278632634   14.10434890351853
C           6.61914942921068  -26.09819052900849   14.49969279475017
C           5.39073892367239  -25.46860666643846   14.55950892326531
C           5.45318634042751  -24.10242380572175   14.29666602084000
C           6.90041367007119  -27.47310038514332   14.72009436983867
C           5.99987533310804  -28.48081974251464   15.01250484442543
C           6.59722015284231  -29.72629707887647   15.17616926553015
C           7.96869223442750  -29.70545775566726   15.01495122909044
S           8.52199401407951  -28.09443383798591   14.64834572074228
C           8.87374860373078  -30.78921483664216   15.11796886941397
S           8.31199436787745  -32.39137240623138   15.47613437626749
C           9.93741303519228  -33.02251613318023   15.42122796434342
C          10.84158098038307  -32.00911845544069   15.13688199160859
C          10.25098112422759  -30.76615962648138   14.96607733969904
C          10.22459138677943  -34.38754579183014   15.61046373497111
C           9.29537108847039  -35.34111207160193   15.90654111511787
C           9.55294135549538  -36.70645350017822   16.13574301671848
C          10.62908454639919  -37.49087392816121   15.81031544243592
C          10.81784647484751  -38.76005384551612   16.55762325255332
O          10.02781592456190  -39.29214552490848   17.30293163174495
C          12.19275824931741  -39.20492099762366   16.23263738380576
C          12.74311432221994  -38.34218512258360   15.26964278070565
C          14.04191123656303  -38.53434541792693   14.82813429281079
C          14.75955610979577  -39.59485596022068   15.36199948621782
C          14.20118024494455  -40.45507815109408   16.30738104512354
C          12.90326781708472  -40.26680932762272   16.75552575267895
F          14.92877983702681  -41.46990023218044   16.79030818156265
F          16.02068478142341  -39.79055914899126   14.95984382236240
C          11.73230689935708  -37.34991614064764   14.89134954999400
C          11.76125219097446  -36.61982922588569   13.72949805096362
C          10.67881389048703  -35.85720505729466   13.24958338519869
N           9.82322452986169  -35.23751767656077   12.80055893103902
C          12.85310191290377  -36.59691740887928   12.83847929785250
N          13.71956240023796  -36.52022811738596   12.08935679938293
H          22.67842453258097   -8.88633479275739   -5.68837668992761
H          21.60614624720351  -12.92781690522683   -2.97468212369864
H          18.03956243490840   -7.72576345821239   -2.84152311604617
H          14.53929271218992   -8.56491383443168    0.22019711033001
H          16.09093325352827   -7.39444584029642   -1.49781290028135
H          16.36312284596127  -13.01287384801468    0.73565061810246
H          14.81874512129623  -14.16257231273876    2.48992855998827
H          10.09053437661926  -11.87456070057923    5.51530143539326
H          11.61568317184852  -10.76502004197478    3.74674173439317
H          11.03817215196275  -15.63572230922431    6.16583951015773
H           9.30519991104843  -13.30493818511681    7.11029970300916
H           9.18766738966307  -16.89275978753626    6.57711525230114
H           7.98794830095181  -18.52056521343350    7.94543498133757
H           7.04037544103361  -17.85564261204400   10.14072429420324
H           8.87020869268039  -11.93852322413121    8.85413086042774
H          10.35812071944781  -12.87076640044758    9.19967636716591
H           9.51163357389723  -12.00231625210680   10.50423115370659
H           6.32871694470273  -15.16920703490909   11.43032881221923
H           8.05838779760793  -15.20482133223267   13.32374636194126
H          11.55096859362404  -17.69439027384659   11.69971253783339
H          10.61835664965679  -19.13127864589856   11.21517675943966
H          11.14280870169080  -18.93767905923528   12.90779025468797
H           8.86039517398450  -20.31450440004424   12.86034274596123
H           4.84952285534098  -19.13129115147983   13.82086368108336
H           5.39931911688049  -16.77709337622795   13.36111808479241
H           5.34747919189587  -21.35764087658703   13.90342085832898
H           8.24763985781058  -22.25184460526829   13.52049420782172
H           4.47840048755219  -25.98795500400967   14.78953752812405
H           4.58868436366295  -23.46418062697492   14.30123711613206
H           4.94257458487374  -28.31245470860218   15.10142311860388
H           6.05961556156602  -30.62921705990131   15.40572700502880
H          11.89885087817113  -32.18788342133085   15.05273770565304
H          10.78818633761192  -29.86262965302135   14.73763616892325
H          11.27255123312378  -34.65385530985468   15.55573724501757
H           8.27375234081179  -35.01572523743877   16.05769869285963
H           8.80990467325212  -37.22807997097965   16.73297916504671
H          14.51795822322104  -37.89618516189238   14.10169691295093
H          12.46959781039083  -40.92949145150506   17.48726454778868
