88
 SCF done       -189.952866331356          0.000906881794
C          -1.74259592575919   -7.43185718822787   -5.94471561865634
C          -2.86832412402654   -6.67443355350047   -6.23845724651497
F          -3.40314225861319   -6.76097549992679   -7.46089866361852
C          -3.45304014187264   -5.82980386363726   -5.29492228018332
F          -4.53817183188209   -5.11888038321863   -5.62272368709190
C          -2.92070781935318   -5.72168554671808   -4.02039183460877
C          -1.80166137247982   -6.47743571351808   -3.73104486787748
C          -1.20347651060245   -7.32959775573473   -4.67287505768810
C          -0.05136888761194   -7.97730649140265   -4.04158203907562
C           0.75897078832002   -8.88901594736517   -4.66709268376547
C           0.59288204821515   -9.29856374036294   -6.00857144695945
N           0.52227082742445   -9.67476301062583   -7.09038096205357
C           1.86308802151832   -9.57022243542349   -4.10983778594926
N           2.76882190442715  -10.18192817365954   -3.75509393504732
C           0.03044099279020   -7.49177506482329   -2.67372654433569
C          -1.05672613034249   -6.54947943825606   -2.46407736611567
O          -1.33819134796642   -5.89102592991165   -1.46325835549097
C           1.03290169736846   -7.88586307631447   -1.80436753333256
C           1.33760626935117   -7.68431407087716   -0.46081688067097
O           2.50076349249102   -8.31779329605973   -0.06863169056694
C           2.68516389834578   -8.13290064120151    1.24137887624848
C           1.64093949571958   -7.35211908488056    1.76637146815018
C           0.78228561197282   -7.06040082506150    0.68637065743693
O          -0.32203775222817   -6.35266645374012    0.81261179837018
C           1.48527043017660   -6.93768762334769    3.17358599036382
O           2.27076392017080   -7.24547799216046    4.03637634230544
O           0.40944720395300   -6.19927259286579    3.44549020503854
C           3.77787989169295   -8.69036371180515    1.93142668333171
C           4.75589947842386   -9.43440730615705    1.33764666863190
C           5.82861085572641  -10.03676176310683    2.02231202023325
N           5.98229186471109   -9.98706692639402    3.39408981325068
C           7.09126993900011  -10.68935535833597    3.72787729487515
C           7.86504261308652  -11.11451381291165    4.79712777812810
C           8.91292021259377  -11.86710635249336    4.23853060641626
N           8.78193152550917  -11.89327546826888    2.86605303955810
C           7.67298272703264  -11.19176950466923    2.52355187521990
C           6.88103482057207  -10.78603966858041    1.46156030986302
C           9.98210806346334  -12.54872038641378    4.85669924769480
C          10.17693882108095  -12.69397426315692    6.19660722283901
C          11.27601290895484  -13.42423992433645    6.69736148148871
O          12.21185716782317  -13.90900374198562    5.85143513024970
C          13.12372252220196  -14.62322324298823    6.54155857760852
C          12.77621370276790  -14.59825252153849    7.90525712464649
C          11.59972186967627  -13.82303787134073    8.00511000843578
O          10.92324072829292  -13.53738452251469    9.11104783262312
C          13.39139841626102  -15.19346665536898    9.07734334933784
O          12.92386876283484  -15.04927793023332   10.19168016767259
O          14.49432751316770  -15.90578798928478    8.84761335993177
C          14.17462277430274  -15.24323579454643    5.84923236186163
C          14.34745968634111  -15.06435252117422    4.49939487748683
C          15.34481462903531  -15.71988517815057    3.77534915985123
C          15.68969760729745  -15.63187458410249    2.44630593965754
C          16.91695277618070  -16.36504210128152    2.04324116808485
O          17.55882636241452  -17.12932636179175    2.72827235856269
C          17.20034235717291  -15.94716155606313    0.65627019638627
C          16.19509078447242  -15.06368012225185    0.23075496800385
C          16.27570520521883  -14.50241698652881   -1.03433058964403
C          17.35085188278019  -14.84970587498629   -1.83979265813803
C          18.33466039859907  -15.73913348320999   -1.41006628000987
C          18.26830815341289  -16.29856404368562   -0.14422307697650
F          19.35210192618176  -16.04870547367218   -2.22232775199700
F          17.44116547558705  -14.30941552579019   -3.06047924961924
C          15.19293496993020  -14.91286720378953    1.29955820928829
C          13.99730234536124  -14.26356901602919    1.09986969432939
C          12.87888359607835  -14.12591975005313    1.94136668981257
N          11.87395174664413  -13.92493321736439    2.46589963264046
C          13.63775288757210  -13.61624066538232   -0.10533755786893
N          13.24371978277036  -13.05639394273653   -1.02738919952860
H          -1.33321918525250   -8.06697640675132   -6.71248404469559
H          -3.36812114443119   -5.07150435608132   -3.28572655497289
H           1.78399289817951   -8.52913949882694   -2.24784162914258
H          -0.75552742380031   -6.15268772895068   -0.08577990338265
H          -0.13442057239439   -6.03554646415343    2.65354301677419
H           3.77736185028671   -8.47914933447055    2.98954560898407
H           4.71938065400273   -9.59064376001688    0.26856616234244
H           5.35373594573376   -9.51724878001574    4.02285442197373
H           7.72001416248673  -10.92097247628562    5.83994557816083
H           9.41294024411789  -12.38384706711758    2.25337821082983
H           7.01110572776740  -10.98204058972755    0.41646377105143
H          10.69420820588157  -13.01639589516039    4.18865003878194
H           9.49554750046356  -12.29246926064423    6.92916912494414
H          11.38802503922498  -13.96610673115119    9.86261612841805
H          14.83600536199798  -16.26761665149903    9.68127739922317
H          14.83842185200486  -15.87412826612934    6.42014061566369
H          13.67899786028547  -14.38518975454672    3.99788827143789
H          15.98903375949829  -16.38966095986480    4.33863915496698
H          15.55285026231887  -13.80549021315687   -1.42360405747449
H          19.02739474947742  -16.98240808781184    0.20042134325264
