108
 SCF done       -222.043180478077          0.000567837911
C           2.77453051891435   -3.74114761762602    8.28167939918221
C           2.77804113977947   -2.81895764933725    9.31543417285459
F           3.89540573268835   -2.12863764419691    9.56316136468468
C           1.64441917601275   -2.58980373312921   10.09735728755921
F           1.70454279901681   -1.69890952248054   11.09171329315757
C           0.46082940496198   -3.26625058782400    9.84471440229053
C           0.44622431370531   -4.16178868587233    8.79196158832015
C           1.59223147264321   -4.41519258906329    8.01641972702020
C           1.27438363633458   -5.42735851457626    7.01408354717864
C           2.18173375866401   -6.17673352651890    6.31973296678390
C           3.56894421529155   -5.91888200990006    6.32588549321449
N           4.69323832419289   -5.69819784996540    6.27069167221860
C           1.83440704623194   -7.31031711084195    5.55357628189571
N           1.60259742966888   -8.26533848630357    4.96310204437340
C          -0.16788600029497   -5.60373806413423    7.02614289171762
C          -0.68843033779343   -4.96185545505269    8.27384103273321
O          -1.80418681947966   -5.04355063932094    8.71909005924700
C          -1.04654048943430   -6.09089476019248    6.11815635785487
C          -0.86409573453517   -6.47773827533439    4.73806837151901
C          -1.61665826409721   -7.57129174250047    4.27841403606172
C          -1.41393565482709   -8.01838017325820    2.99690261174541
C          -0.50998849109000   -7.37831879766013    2.13965054533298
C          -0.52722044385345   -8.09618001097272    0.83707045275866
O           0.08389401090631   -7.86352309039123   -0.17203885755935
N          -1.43989952488169   -9.12711477988428    1.00119337685996
C          -2.02035500154069   -9.15736902076812    2.25962445917450
O          -2.84793520919632   -9.95013908234875    2.62567734035205
C          -1.72410062939160  -10.10516686245563   -0.02820417333850
C          -0.77484453782626  -11.29390063192144    0.06779253649363
C           0.19795278800398   -6.27453177371371    2.54621453123106
C           0.02214785477917   -5.80888672029789    3.85770926346452
C           0.71447592911252   -4.62431245254276    4.30782988146579
C           1.96897079382223   -4.28173952950451    3.95242088633584
C           2.61818675270750   -3.15858375178209    4.55665454230782
O           1.94845222041592   -2.48031183077608    5.50516140909744
C           2.73901051622181   -1.48303316901958    5.96476540359937
C           3.96474390565315   -1.50815401524401    5.29505518523046
C           3.88594653179134   -2.60023964220984    4.38750575508649
C           4.90479930830436   -3.03058480324216    3.38998277445049
F           4.52005935322710   -4.07228769437689    2.65222682973668
F           5.17768367970575   -2.03876971982636    2.50545590448194
F           6.08046054116335   -3.37101073437046    3.93568058021370
O           4.88325198454186   -0.57526461843068    5.56438780734362
C           6.21457199687528   -0.68303482803907    5.08804606597827
C           2.27652586038468   -0.49708679320816    6.87935710687472
C           1.06117587322308   -0.46184055073778    7.46296696539502
C           0.56353515274118    0.68364015557531    8.20716344128457
C          -0.13623436087713    0.45645914211157    9.39862590630336
C          -0.55379202544606    1.53371435405878   10.14146552977557
C          -0.32435467931980    2.84556923292537    9.70740213672698
C          -0.87195719385567    3.76931905443711   10.73328582492956
O          -0.87874290146505    4.97259466363244   10.75306668819710
N          -1.40844316328859    2.94905287540666   11.71503584944721
C          -1.26578879560849    1.59699941040594   11.44329430702248
O          -1.66235826203984    0.70005048747253   12.14074450026954
C          -2.01964631707604    3.45679996667859   12.92556988859525
C          -0.97546832983556    3.69684759504016   14.01005193366950
C           0.27783861185992    3.09661347582289    8.50072585514939
C           0.72114978402732    2.01298822635567    7.72268279608073
C           1.17184075577108    2.20119989261544    6.37264316991471
C           1.26480420702542    3.32577493866221    5.62601419822390
C           1.65958194184100    3.25881484459595    4.25976616995142
C           1.63734898862365    2.19990496506913    3.39684306154536
C           2.52543086204282    2.25401215413888    2.20009792874927
O           3.09511436041162    3.22343524936903    1.76263217248339
C           2.59651064327515    0.85988590660099    1.70308593491728
C           1.71686012343641    0.05606283041016    2.44799820772315
C           1.58812649692109   -1.29078282147936    2.14794485974497
C           2.35722669900636   -1.80794469430113    1.11759503573581
C           3.23409150974083   -1.00549144252897    0.38488260903056
C           3.35892463721572    0.34538438672172    0.67255888828583
F           3.94784312786121   -1.53988690862368   -0.60558528318775
F           2.24633976141102   -3.10947161525440    0.83199141946696
C           1.01898552136965    0.88747243669479    3.42774193625218
C          -0.12984871862268    0.51146438972709    4.07615928264662
C          -0.95360430510814    1.39975156908708    4.79928069818931
N          -1.67997042181088    2.08257973137978    5.36645142965005
C          -0.61737068214893   -0.80857910904085    4.12604791490922
N          -1.01731648029757   -1.87575699426979    4.26958183390629
H           3.67875295375131   -3.89632921427867    7.71668696581980
H          -0.41512977930637   -3.09512570082508   10.45147720640078
H          -2.06382015152729   -6.18534283512845    6.48943674852769
H          -2.30796754788149   -8.07568064396958    4.93580946164215
H          -1.61293810165110   -9.60531702987464   -0.99334115012788
H          -2.75831644954571  -10.43033099760878    0.10695169702834
H           0.25396256176212  -10.96389392121813   -0.05432455026214
H          -1.00678565310205  -12.01287665048679   -0.71254543677694
H          -0.87819004493051  -11.78054772353203    1.03466001517529
H           0.85999236426665   -5.76053852318598    1.86686124846304
H           0.18921910318730   -3.99815632413275    5.01730610897524
H           2.53599871323370   -4.87669116200084    3.25611610967756
H           6.73749570505990    0.16181385932044    5.53238456616547
H           6.26464810113197   -0.60214662895221    4.00100954358133
H           6.68183973113003   -1.61221435512830    5.41864357024431
H           2.99847133949387    0.28635145294889    7.06565705772134
H           0.39502949095719   -1.30985210011674    7.36792669920177
H          -0.32318200467351   -0.54856193524280    9.74090531800675
H          -2.75056492843897    2.71510158955130   13.25568775942569
H          -2.52516681674819    4.39149172862767   12.67149918365903
H          -0.46256220229722    2.76863686522488   14.25133986758046
H          -1.45802432513849    4.07337541154163   14.90728025611009
H          -0.24500605478728    4.42841764859131   13.67243121644521
H           0.40032337136209    4.10955915723846    8.15340013971218
H           1.43767274989236    1.28833178702037    5.86360550683185
H           1.12213508630632    4.30980399605125    6.04667816968089
H           2.12151593497134    4.15124051530723    3.84746438955591
H           0.91720642797664   -1.94898026282144    2.67450622263459
H           4.02815215180941    0.96871319880570    0.10132480928578
