126
 SCF done       -228.499744488268          0.000348997278
C           0.70390579190098   -0.77059235356944   -2.21347450281619
C           0.48740483929330    0.44958182532292   -2.83516189248783
F           0.60476245214810    1.57199071498020   -2.11882935983437
C           0.15501339223495    0.53345697517457   -4.18879784299593
F          -0.05166098611036    1.73241730097657   -4.74442609465712
C           0.04143420446897   -0.61026913275225   -4.96227402922383
C           0.26705354018083   -1.82634935339066   -4.34695050692063
C           0.59011290111655   -1.91916955247583   -2.98100941232265
C           0.72407642694568   -3.33007184851652   -2.62232086706819
C           0.61811600926401   -3.84056904868716   -1.35802591100384
C           0.55122866423757   -3.04555518312647   -0.19438169207604
N           0.51680437362860   -2.43950764035455    0.77906957653563
C           0.47742368302075   -5.21679544863837   -1.07667139842997
N           0.29390213564959   -6.31222628643078   -0.78974455489307
C           0.71527596840830   -4.08691307755499   -3.86146237513819
C           0.24259920732057   -3.18153560532749   -4.94414449085498
O          -0.04887398788748   -3.48792039987647   -6.07488765491109
C           1.12544960515361   -5.34338803650204   -4.16098057227928
C           1.92846811091635   -6.23566700767810   -3.36883515715583
C           1.74757574030375   -7.62087261750324   -3.50312981472878
C           2.50085146071604   -8.47421704519945   -2.73684540226113
C           3.48065058903601   -7.97217763832965   -1.86127029393846
C           3.70385402336972   -6.60542704727442   -1.76103889428687
C           2.92064129456265   -5.74908158752987   -2.50460843903620
C           4.12473981796788   -9.08818715113460   -1.20354329643758
C           3.54431188120041  -10.27770170974743   -1.67609703844333
C           2.45331582609543   -9.98142570147486   -2.67532382790425
C           1.08536703537902  -10.47102702408107   -2.15851458097833
C           0.72467763987602   -9.90066157444007   -0.79242929294697
C           2.74724137618655  -10.61793867585458   -4.04608722159561
C           4.09175907318044  -10.18937332178198   -4.62182246550345
C           3.98487132177176  -11.50017069572990   -1.22905198534003
C           5.00731939243317  -11.54308819247776   -0.27422320730907
C           5.58642026707421  -10.35445509927834    0.18554067212738
C           5.15269084749441   -9.12713503319409   -0.27201332545877
C           5.53371915207910  -12.80562928865390    0.20766971847434
O           6.83226410022330  -12.86052218659176    0.52335101512116
C           7.15643862354298  -14.13282155937695    0.85674358978451
C           6.01948526611892  -14.93318192451523    0.76732673527334
C           4.96177493914669  -14.06205771917184    0.37294833215901
C           3.50375041965787  -14.34412553377806    0.32399550074406
F           2.75737790349860  -13.25667991772424    0.56922773113612
F           3.08121604631778  -14.81921450751567   -0.87305058975523
F           3.11256271246134  -15.25091608799663    1.23383748321927
O           6.05546151054788  -16.25544095774559    1.01093353291623
C           5.10299944831189  -17.11032040420599    0.39955967781323
C           8.50539759825811  -14.40254626943683    1.23284410940516
C           8.98799831203521  -15.61425278783616    1.56611589634749
C          10.35134953269862  -15.89643732528361    1.95298567683109
C          10.79198618667179  -17.22941410121788    1.94353422959629
C          12.08410710652224  -17.52481311124397    2.30250930872029
C          12.96292441748050  -16.50335146304350    2.70472249657867
C          12.53748235729672  -15.18196814673298    2.72936268503544
C          11.24391516449365  -14.89073851323528    2.35073148979273
C          14.23466158686058  -17.09701697621831    3.04438693761766
C          14.14731631193129  -18.48756397538601    2.84619172154782
C          12.77630702644394  -18.86686476275927    2.34023590155585
C          12.06874782262787  -19.84706294935127    3.29321544982935
C          11.94932554768748  -19.30782332736501    4.71360548397054
C          12.86429884776978  -19.48512970107482    0.93067647967120
C          13.56263566221033  -18.57818438807315   -0.07546007140502
C          15.22158533921627  -19.29811705755717    3.10884146902205
C          16.43206043122601  -18.72247088450755    3.52888907574102
C          16.49954989354990  -17.33642902226042    3.74023658643965
C          15.41000312495519  -16.52452241898941    3.51437006790714
C          17.56019333641310  -19.57330968841624    3.78288536133736
C          18.88163071825651  -19.28172394806551    3.68029442645167
C          19.88487240455041  -20.14023862610071    4.36417435008998
O          19.70334916232883  -21.23291401859919    4.84561719181094
C          21.13111956946357  -19.33923722588015    4.37470133009027
C          20.93665610730455  -18.15738278697433    3.63733887584464
C          21.95962428162856  -17.22845383842812    3.53010173930762
C          23.15984859715086  -17.50837604598119    4.16546755799542
C          23.34955425180360  -18.68898987316165    4.88591144963697
C          22.33081140438430  -19.62122160650653    4.99843404516334
F          24.52736569842526  -18.91978191940073    5.47710456564482
F          24.15697526367225  -16.62093579836535    4.08753663725810
C          19.58882518859301  -18.17179056268621    3.07017790527508
C          19.17616204662427  -17.43941780510204    1.99041922178813
C          17.96923484522015  -17.67446595365083    1.29757257299254
N          17.03831730710687  -17.86035996901147    0.65312590068546
C          19.94805728970005  -16.42242796315630    1.39099605933593
N          20.53081712098262  -15.57250930010822    0.88652704588066
H           0.96108329522774   -0.78707707240510   -1.16678307640136
H          -0.21405907253299   -0.54675309054831   -6.00799319948696
H           0.85468774892467   -5.69134051647916   -5.15336714975573
H           0.99002543997769   -7.99275897137454   -4.17676451612958
H           4.47325960928716   -6.21707381815968   -1.11129818288035
H           3.09755000356156   -4.68400669047824   -2.45579754476256
H           1.10924627869513  -11.56100354144317   -2.10066280881808
H           0.32006006546337  -10.18916810480222   -2.88447138615057
H           1.45275546685197  -10.20726301189485   -0.04490427567285
H          -0.25145410207021  -10.26931902069459   -0.48726209418142
H           0.68712012480098   -8.81463815214010   -0.81922185241378
H           1.95032016325760  -10.34011853686553   -4.73853836538164
H           2.72920350123088  -11.70382146940844   -3.93658734465139
H           4.12689332344756   -9.11062734201834   -4.75813428728068
H           4.25276369595434  -10.66311961566923   -5.58728382349206
H           4.90400038413833  -10.47708790258883   -3.95790817260280
H           3.56700909089844  -12.41161232472454   -1.62570313200773
H           6.37991667749880  -10.41367087048454    0.91438851142668
H           5.60498805490260   -8.21722178131266    0.09170629275183
H           5.61368707125322  -18.06099919947011    0.24545409006241
H           4.76997584928864  -16.72240637632057   -0.56478197699774
H           4.24295020857308  -17.27068734902610    1.05242274765325
H           9.14261747193923  -13.52986648939576    1.21341820940243
H           8.31901200110185  -16.46167659151748    1.52829520135164
H          10.10817293774616  -18.00885538807842    1.63948976155617
H          13.20666503153786  -14.39418964663376    3.04145150567257
H          10.90594286200569  -13.86687767325164    2.38318564541307
H          12.62556644263764  -20.78619299365834    3.30666121726955
H          11.07178293232283  -20.05676271036176    2.90072898981865
H          12.93274184083281  -19.10944028084171    5.13432199017836
H          11.44420914342625  -20.03275796953546    5.34753570817136
H          11.37811923326536  -18.38222515367731    4.72635362351282
H          11.85090749100113  -19.70167257124185    0.58514929893160
H          13.40354962755429  -20.43208015604439    0.99951029760322
H          13.03543863518699  -17.63129712345096   -0.17030039766892
H          13.58440885429128  -19.05719176350869   -1.05148672073993
H          14.58617997852318  -18.37398938188554    0.22798139433611
H          15.16897701923823  -20.36624081897158    2.95831564294343
H          17.41328307951755  -16.90928804400384    4.12850285207750
H          15.47231347360933  -15.46241212389796    3.69646244288732
H          17.33874381149276  -20.56625956806725    4.16282204791254
H          21.85771543716477  -16.30271813210668    2.98736397721919
H          22.47558891321906  -20.53326320403277    5.55522206023132
