99
 SCF done       -211.827681647511          0.000499394656
C          -1.88998651204929  -13.98392433967696    1.25025277153604
C          -0.78541384762281  -14.48580848124596    1.92279379777506
F          -0.80486454729553  -15.75362915240104    2.34488436235426
C           0.34271813390667  -13.70035401054984    2.16631992709032
F           1.38120108140624  -14.22360588615220    2.82662293501178
C           0.39933555496937  -12.38641042588588    1.72909241959368
C          -0.69487718642554  -11.88871616874659    1.04889582943464
C          -1.84014482067296  -12.67115685243559    0.81137897347006
C          -2.83908933805010  -11.84798234406952    0.12981153158557
C          -4.18748634212556  -12.08605470920584    0.11343343503650
C          -5.12849247940550  -11.09499883630282   -0.23572104075195
N          -5.90647723375512  -10.27884971388235   -0.44873279099537
C          -4.78231378175268  -13.28736165995516    0.54922180857949
N          -5.30792054563499  -14.25593408659360    0.86846549056184
C          -2.18333789697466  -10.61993074350466   -0.25745962058665
C          -0.88206931147005  -10.54587984261831    0.45514034974073
O          -0.13002793230215   -9.60040397797028    0.49299514913432
C          -2.49178755767327   -9.65941522888258   -1.17732195599329
C          -3.42472417920547   -9.70568115676497   -2.23021923633060
O          -4.01613839848137  -10.87784944354138   -2.60660374402237
C          -4.78695905924335  -10.63546241678686   -3.64320662547590
C          -4.73706016004962   -9.31031832066825   -4.01714155034654
N          -5.43689560714214   -8.85443204736663   -5.17178715518568
O          -6.38722101912302   -9.52065254792086   -5.51588221183732
O          -5.01828969338944   -7.88501097101134   -5.76795091239403
C          -3.84403830294443   -8.67021809170279   -3.09133166581522
N          -3.49307575353734   -7.37681836506132   -2.92677362461579
C          -4.00233556988300   -6.28758663755933   -3.57163385332464
C          -3.74187704647160   -5.02325371640903   -3.19249250182257
C          -4.33447920535598   -3.88088718158717   -3.81642751822636
S          -3.41595181151378   -2.40748334604050   -3.81647190528788
C          -5.56046042800597   -3.71841665455554   -4.45032970676256
C          -6.65416528575212   -4.71684636858775   -4.45516026810684
O          -6.61986708163765   -5.78648499510280   -3.86889548123440
C          -7.81391176130785   -4.27366253227612   -5.20537978351978
C          -8.97155162792839   -4.96303798292381   -5.49590055338524
N          -9.77834802927986   -4.16142099567054   -6.22948126318601
C         -11.04606677443748   -4.55481460383720   -6.79160754562813
C         -10.85793309394215   -5.21153187123292   -8.15761149667915
C          -9.17239753081384   -2.96776986341557   -6.42837033178056
C          -7.94242125365834   -2.98994554242247   -5.80556464940768
C          -6.92916044625673   -1.95672904909669   -5.71615854056725
O          -7.05318487701553   -0.84811171870513   -6.21160286612672
C          -5.73256220944458   -2.39976813217089   -4.96781589683619
C          -4.65372847245522   -1.56489758289460   -4.70763260497633
C          -4.51150354759884   -0.19921792056040   -5.06176127245941
C          -3.37551745483747    0.51657372629334   -4.89522846528791
C          -3.27171058258347    1.89847197447918   -5.22018713946481
O          -4.37656772959225    2.60676837280544   -5.56207352598407
C          -4.02067562570001    3.85393566300300   -5.78596839695045
C          -2.66297970363104    4.02801120112948   -5.59699315295404
N          -2.05945012021161    5.30101757276511   -5.76436198197387
O          -2.73978212060566    6.14804809404463   -6.30138110940670
O          -0.92898356951934    5.48072062870066   -5.36005905062410
C          -2.14991791126316    2.73776150143751   -5.22876178432865
N          -0.88768385228578    2.25977871082391   -5.00935757871428
C           0.29107847422993    2.89358535821731   -4.84681389358680
C           1.44434404290352    2.18934709229594   -4.67359192995257
C           2.67058415231439    2.81705241457654   -4.41161697155146
C           3.88083684337876    2.24207402781993   -4.12402858890700
C           5.09572966254375    3.08808000309221   -4.20246338838203
O           5.14068726437406    4.29237413279643   -4.30301620779433
C           6.23507320511727    2.14237763248668   -4.17719830395466
C           5.74824313041094    0.83616247306889   -4.00145176600498
C           6.63057367183143   -0.23234884132641   -3.99246004697870
C           7.98206262981189    0.03649630546470   -4.15185896468673
C           8.45712526521655    1.33808775693646   -4.31024136466576
C           7.58068515012593    2.41139752797449   -4.32644794726781
F           9.77089374020787    1.55102739822704   -4.45441737653688
F           8.84770596664325   -0.98422652788664   -4.15780662861370
C           4.29028015840062    0.88780984542285   -3.83827634048048
C           3.54386565085298   -0.14449991892482   -3.32581610526171
C           2.18976467121426   -0.08961430860510   -2.94199412130828
N           1.09646359452936   -0.13774196588075   -2.59072351244565
C           4.06193854419002   -1.42532601046767   -3.03622644207617
N           4.40083044312818   -2.49521886100440   -2.79477726491295
H          -2.73925937301496  -14.62665148700087    1.08381869923434
H           1.27032377026549  -11.77918686894551    1.91746870481713
H          -1.85189301505467   -8.78396416647925   -1.14391913463181
H          -5.33244975278151  -11.44665599911907   -4.08734382977133
H          -2.88360101070950   -7.18959169816032   -2.13756181315870
H          -4.62674282487894   -6.48838421306389   -4.42398469812297
H          -3.03761679613433   -4.81985734436661   -2.39493045993660
H          -9.25047437749576   -5.96178962886499   -5.22456931875232
H         -11.67478329687877   -3.66584182216033   -6.88607939542321
H         -11.52879106599687   -5.25413374895034   -6.10428031963306
H         -10.38291467805417   -4.51951876844816   -8.84888399082300
H         -11.82150586899862   -5.50483796043342   -8.56407644606388
H         -10.23211255902689   -6.09618207032951   -8.06923383400181
H          -9.63607722950982   -2.17770340302020   -6.98503618060560
H          -5.38243441431151    0.26181171648354   -5.50724514365659
H          -2.49570071475743    0.04085413772602   -4.48176884304690
H          -4.76812971312266    4.57233653380674   -6.06183852862590
H          -0.85032137761205    1.24989396809723   -4.91168890948590
H           0.28169216139204    3.97364645308628   -4.84065752255196
H           1.40466680804561    1.11225482656771   -4.73305758791471
H           2.69519914450218    3.89877653271879   -4.49361895031724
H           6.31688909530557   -1.25690403425499   -3.87886046088728
H           7.94227228553187    3.41929257922635   -4.45324129588940
