111
 SCF done       -205.276260696485          0.000443727417
C           4.13205931715368   -2.54951123425167    0.25276041729550
C           3.35543412532874   -1.70657790448692   -0.52962232235199
F           3.49525430583811   -0.38365114057649   -0.38795007095670
C           2.43721511343395   -2.20177120834420   -1.45487831669352
F           1.70973149794744   -1.35264681191537   -2.19108097377050
C           2.27150115583447   -3.56741514801942   -1.61926587579542
C           3.04454786623185   -4.40352859049386   -0.83888761328105
C           3.97238660655513   -3.91683622485893    0.09315960687806
C           4.62184888258511   -5.05910311446712    0.73837098145054
C           5.64392959195440   -4.94949358643128    1.64779651234773
C           6.16227154267223   -3.71916055835991    2.10593956192997
N           6.63248478118358   -2.76064217054507    2.52782720930959
C           6.36123471520039   -6.00425226934103    2.25156574912752
N           7.01456706931826   -6.78359317073256    2.78688407311315
C           4.02669818765821   -6.27200483955275    0.20457540237596
C           3.05147680977510   -5.88130778309457   -0.82518766544931
O           2.35634942094440   -6.57488670882673   -1.54700310834411
C           4.34273718722433   -7.52332508546500    0.69647299408912
C           3.96140960624255   -8.82789978371328    0.34241544177664
C           3.16124579987753   -9.21463985065609   -0.71960889470388
C           2.83926904149804  -10.52011026468336   -1.03377541215826
C           3.32655291869920  -11.65612147122794   -0.24431060776259
C           4.12358110414958  -11.53225087107579    0.84174460786687
S           4.67609307319427  -10.02995184934103    1.44319609827664
C           2.78319913303435  -12.80369849418299   -0.87319382492993
C           2.00258141256316  -12.42886383087846   -1.97887771596487
C           1.47211831052719  -13.56549672980936   -2.63826802423952
C           1.84264897574341  -14.72229965076688   -2.03424751855845
S           2.85130210195247  -14.50174570814787   -0.64284321914342
C           2.02176826651392  -10.99971321057084   -2.09164246223250
C           1.39044423234470  -10.15811430646045   -3.04099804460164
C           0.49836387989587  -10.57087569578092   -3.97432973931785
C          -0.14659972695504   -9.76238293044849   -4.95294443522010
N          -0.87118771153246  -10.33343109641608   -5.96422776943050
C          -1.03410751665708  -11.72681093236683   -6.28116887065139
C           0.23149223668735  -12.32078375200360   -6.89707277881170
N          -1.38897372454712   -9.42794141091066   -6.77453172201404
C          -1.03686989780589   -8.23618158076455   -6.30269044495538
C          -0.25473403519355   -8.37395769991991   -5.14605018406692
C           0.32892986101856   -7.26108329654367   -4.34504134597097
C           1.74597180473655   -6.92169951433721   -4.81580498668615
C          -1.48419984809064   -6.99793078980638   -7.00209171022486
C          -2.99458208459687   -6.77131325279550   -6.81190346178424
C          -3.49233947162647   -5.70228984804316   -7.71558184997608
C          -4.16216164763683   -4.61374735592683   -7.32548630592149
C          -4.65972153051151   -3.58554475051665   -8.20378066607193
C          -5.44462659656247   -2.56106088537888   -7.73729517556567
C          -5.97087659030770   -1.53597552075756   -8.52667367762369
C          -5.59691191942624   -1.40016286278094   -9.93558353866070
C          -4.84875645944482   -2.30623792727686  -10.60582580674016
S          -4.21896215793719   -3.72768779240278   -9.89232897477825
C          -6.16744881108803   -0.17072779237440  -10.37061830323110
C          -6.85211275534050    0.42525795099358   -9.31460665045985
C          -7.44454380224983    1.65054881835573   -9.68654394289713
C          -7.19480281109062    1.94857022535230  -10.98957538974271
S          -6.24393278919937    0.76129466769785  -11.81306819324039
C          -6.77247949377602   -0.43457576931316   -8.15751178927859
C          -7.39746747318669   -0.15613896365948   -6.93084400905252
C          -7.76428060059187   -1.05809628333641   -5.96644471481573
C          -8.38208794580776   -0.69982976064071   -4.75726579152098
C          -8.34527865437138    0.51214482212223   -4.10784631160165
C          -9.41783018591197    0.86575160056898   -3.15520512118240
O         -10.27412751621786    0.13683479678543   -2.70498862190609
C          -9.25281703329183    2.32007215433028   -2.90779548072526
C          -8.09501663029793    2.77353149984977   -3.56305880892110
C          -7.74494224551088    4.11210823845289   -3.50975192072578
C          -8.56837045206356    4.97044946897292   -2.79518844681192
C          -9.70860493581714    4.51148394742672   -2.13772233830581
C         -10.06446522131755    3.17248456466164   -2.18732882698209
F         -10.47240420614229    5.37519994376059   -1.45429641594747
F          -8.25883258050516    6.27253407646119   -2.74366164732535
C          -7.44139764579722    1.62920836881386   -4.20420762912964
C          -6.11749393962063    1.59198464366718   -4.57395579638133
C          -5.44497397625896    0.40944578114434   -4.93443821068154
N          -4.83997451131474   -0.53430487012486   -5.18572099104410
C          -5.26573195246179    2.71240686131217   -4.56417251839231
N          -4.54050592242484    3.60219551642151   -4.60042905635900
H           4.82410114084976   -2.11182710951075    0.95262888027418
H           1.56062367326694   -3.95644445142019   -2.33077370154364
H           5.02390211252493   -7.51065843562604    1.53972029488519
H           2.76668832898686   -8.41705463281686   -1.33195364052251
H           4.46741183194942  -12.38360299130644    1.40844852779475
H           0.85649021996947  -13.55403395787915   -3.51875264763339
H           1.58419917465737  -15.72254687515917   -2.32251263656223
H           1.66081224424062   -9.11631130303572   -2.99062925711812
H           0.23309807337378  -11.61684764483474   -3.99503175883922
H          -1.85485868612309  -11.77806454929635   -6.99960691203728
H          -1.32353091506004  -12.27843845619845   -5.38119840351919
H           0.48410812930329  -11.78677042746950   -7.80948618201071
H           0.06952398533704  -13.36768374482378   -7.13934822775373
H           1.07215441483757  -12.24427533478933   -6.21090257976744
H           0.34884003634089   -7.52545195982051   -3.28704422343212
H          -0.30316859684997   -6.37654555042711   -4.44982013842237
H           2.37117836380509   -7.81193633056853   -4.82585173169571
H           2.19613239195950   -6.19447759879621   -4.14569688415436
H           1.72520893223407   -6.51033306492654   -5.82273755049078
H          -1.27964725424134   -7.11273904585873   -8.06877075943752
H          -0.93100876660776   -6.13369715479736   -6.63471725430295
H          -3.20958513834293   -6.52986470763510   -5.76961323090398
H          -3.49973104609486   -7.70934696041074   -7.06081510263529
H          -3.27862637380914   -5.85334851178409   -8.76663596594335
H          -4.38239784997569   -4.46173499619475   -6.27704760630964
H          -5.62775028763438   -2.52687569665025   -6.67318821564646
H          -4.60107640693093   -2.19634808094202  -11.64981642679430
H          -8.02115801871737    2.28228179109373   -9.03538416409498
H          -7.51613748391141    2.81218916218221  -11.53825062949222
H          -7.69524721059550    0.87691167111371   -6.78717119241727
H          -7.69710728956821   -2.11402211590095   -6.18536970566442
H          -9.03308714110895   -1.43694648903708   -4.29817698039478
H          -6.87404137702422    4.51228350115588   -4.00294184538521
H         -10.94663813655125    2.81664001045832   -1.67960876141072
