130
 SCF done       -238.305101993547          0.000464300033
C          19.37053729278592   -0.82875333340840   17.96756260370231
C          20.72353318115145   -0.62648697964454   18.19611659574861
F          21.12915086129014    0.55700549931021   18.67250556154832
C          21.66794219191486   -1.62062197569687   17.94160152027502
F          22.96444121916350   -1.38077688381332   18.17784568682550
C          21.27628455898777   -2.85314290811296   17.44521280725496
C          19.92945691912966   -3.05184494812235   17.21622258817194
C          18.97088238954960   -2.05995393001299   17.47072243642872
C          17.64999103369193   -2.58886107890938   17.12775019646037
C          16.47150496775864   -1.91449151733556   17.32290732270690
C          16.38809681865665   -0.60685879303524   17.84763866944747
N          16.24234835450879    0.45227797848015   18.26579420428432
C          15.17038812563795   -2.39695061850441   17.06548639917692
N          14.07247774045413   -2.69480669498139   16.90344368838135
C          17.83218866929159   -3.92995702994248   16.60245390515943
C          19.26614580667039   -4.26545348543392   16.68671917629192
O          19.83713823914451   -5.29530772198880   16.39165979435027
C          16.80720553861520   -4.67756554200611   16.07004340477436
C          16.77254239380345   -5.97235605843257   15.53505007040048
S          15.23667445014560   -6.50258223271972   14.86300549676874
C          15.89325620315276   -8.04252865871746   14.43579864302566
C          17.23209699770878   -8.13083263082142   14.81217177350332
C          17.71709788862068   -6.98834582984249   15.41786887781022
C          15.12398619775403   -9.02853653582698   13.77384004000715
C          15.52667890284400  -10.28882322682732   13.36564752557822
C          14.53197293741373  -11.00209509826838   12.70905871465940
C          13.33925922891873  -10.31002034959515   12.59664735810854
S          13.46143026572772   -8.74083477901802   13.33347334142743
C          12.14788602827564  -10.73131298168838   11.95825337097726
S          12.06287786604481  -12.26383644710114   11.13740054089787
C          10.42305536377962  -11.96206570708887   10.63257145473537
C           9.98952101937793  -10.73781478993765   11.10728310402721
C          10.94998768938260  -10.05246613573797   11.84443338810176
C           9.76898102398478  -12.91992083769389    9.80972201562826
C           8.54294417056997  -12.76214076965548    9.26323168627365
C           7.88871210887500  -13.67750530836271    8.36534327107203
C           8.36210793558176  -14.94388119347528    8.10285891869634
C           7.72027657322440  -15.76791456566168    7.15738745682123
C           8.01650769400367  -17.04155983336830    6.69278001470001
C           9.11065373048325  -17.96631368598344    7.11409185442819
C          10.49941327818835  -17.38970629080201    6.77917160707872
N          11.45194905924188  -18.47605391323237    6.64454325869421
C           8.98094695377240  -18.32776491747878    8.60445065501488
N           9.89813781622517  -19.40221168954210    8.95790466279507
C           7.05946982343674  -17.33559420624703    5.65237181483429
C           6.94640570668237  -18.39139575470968    4.82635286549231
C           5.90954261764286  -18.43676681032322    3.75407695039779
C           4.96702867880667  -17.27842341870812    3.74991183293660
C           5.09632226746035  -16.22833734095593    4.58101510653922
C           6.13939616549687  -16.19587492274891    5.53779580302492
C           6.54819057744462  -15.25257181682178    6.45562559407247
C           6.05399222227347  -13.96595185416822    6.77701421501127
C           6.70032659070350  -13.21591704434026    7.70131588946387
C           5.23756429808190  -19.78604202197373    3.77029952815035
C           3.94940414890771  -19.99028947026999    4.05251840226498
C           3.30567887003318  -21.27320674426062    4.03354339585483
S           1.57713444274625  -21.35612292737270    4.20389481824873
C           1.59265069047600  -23.08607472545241    4.02377816372779
C           2.88063486248399  -23.54638906237358    3.85675705173714
C           3.83791052610050  -22.53077236983245    3.86054008555457
C           0.38982876534794  -23.84066887197711    4.03493718209008
C          -0.90429218248984  -23.38521996667857    4.18385395388384
C          -1.85920403622408  -24.39681768202932    4.12054759201445
C          -1.31724672875968  -25.65235503163057    3.92176953081929
S           0.41931256427761  -25.56467522957074    3.81664713728844
C          -1.99670011976974  -26.89136266145331    3.80044564092711
S          -1.13649228063837  -28.37920367744709    3.58433680131855
C          -2.62174601637957  -29.29315827237361    3.52926044372383
C          -3.71263175980038  -28.44814823193086    3.67398100818866
C          -3.36643006213401  -27.11449921732811    3.82612821590610
C          -2.56604237192131  -30.69488883255339    3.39520412607444
C          -3.64423641912720  -31.52191471812538    3.27561509726395
C          -3.57538798010845  -32.92134437838074    3.12348805958970
C          -2.56946714557824  -33.80661949200784    3.41177311199868
C          -2.59567807974882  -35.13532100920268    2.74978934510875
O          -3.50611185803134  -35.61642161429870    2.11520500978728
C          -1.25625909688780  -35.71968801464710    2.99160147088260
C          -0.52520979052999  -34.86788691580743    3.83695229711532
C           0.77850164240528  -35.18487157373472    4.18168047505716
C           1.31846115150255  -36.35695546537575    3.67274942368142
C           0.58131599782238  -37.20446210793122    2.84580621434606
C          -0.72213411627024  -36.89146311967463    2.49392594963084
F           1.14120491573292  -38.32943462851836    2.38321089361692
F           2.58068995239680  -36.67615730283874    3.98231621330132
C          -1.37678585484990  -33.73869599747817    4.22207520450027
C          -1.15774363885272  -32.94501286047772    5.32016636995098
C          -2.09277361183597  -32.02283083096551    5.82915945976911
N          -2.82417268702788  -31.27730020153140    6.30549874950666
C           0.00216166920877  -33.00441737062257    6.11872595570168
N           0.93250876450739  -32.99353664138425    6.79112748564832
H          18.68457960659249   -0.02579705796520   18.18026457381563
H          22.00070774095607   -3.62642908605872   17.24527871962000
H          15.84282052491287   -4.18480552858156   16.03541554853449
H          17.82538512310021   -9.01012418476693   14.63991797038911
H          18.72618129659587   -6.87290435737243   15.76774749192872
H          16.51591340087359  -10.67077886421715   13.53930394993430
H          14.65847349321742  -11.99495126118970   12.31518950091359
H           9.00369823350951  -10.35279500438763   10.92119019640745
H          10.79635381101332   -9.08379031553623   12.28717335862351
H          10.34579075075251  -13.80964499628902    9.59909570971048
H           8.00233618810953  -11.84753757116565    9.46847861512171
H           9.23851924884808  -15.31104999602582    8.61162986829211
H           9.02294040515985  -18.89554760827249    6.54231061409450
H          10.78118774144968  -16.65061823945332    7.54605523857656
H          10.44521258551212  -16.86663845088692    5.81795208601983
H          11.47197865601346  -18.99649812252068    7.51798904039067
H          12.38167603689020  -18.11053309900913    6.46828856978272
H           7.92527201884579  -18.57898033549961    8.80668370745711
H           9.23627040593839  -17.46330082664443    9.22122245920201
H           9.64195803155711  -20.25268872677819    8.46565562223976
H           9.84618629911013  -19.59437809311693    9.95275416853694
H           7.61494797770120  -19.23971880555261    4.88467793161495
H           6.46890033432665  -18.39755218228652    2.80064784042071
H           4.18998544855602  -17.30607366282099    3.00101395873214
H           4.41170935194288  -15.39431989701155    4.52486188075295
H           5.17163836697743  -13.59482519688680    6.27638620695062
H           6.33760576970728  -12.22856018891877    7.94938387229986
H           5.88555104493077  -20.61982082661138    3.53947260373762
H           3.30977687962442  -19.15110687200563    4.28905728868346
H           3.10714723015906  -24.59076698366222    3.73235611258501
H           4.89021315278896  -22.71456829649983    3.74370334686727
H          -1.13514461198637  -22.34504156437384    4.33130635413374
H          -2.91527591842666  -24.22350176609284    4.21659003993271
H          -4.72721259922473  -28.80170123121917    3.67891258890615
H          -4.08165370213080  -26.32271379792865    3.95380482413704
H          -1.57202393916919  -31.12031681472767    3.34014940885374
H          -4.62962495516155  -31.08365419681575    3.20912711819433
H          -4.42877417701010  -33.38488040102172    2.63607937930920
H           1.38868582544726  -34.56126608022105    4.81437547969648
H          -1.29345283846723  -37.54404267082431    1.85332115632684
