101
 SCF done       -207.070664779460          0.000547129501
C          -3.33440585802030   -1.63356218074358    0.32318577251822
C          -2.62711952133256   -0.57023401597760   -0.21695237050258
F          -3.22518088848218    0.62128636184070   -0.31573929663108
C          -1.30933797332743   -0.71237216470060   -0.65569108517916
F          -0.66743954261253    0.34127021497723   -1.17227415957394
C          -0.66095440421583   -1.93258509811884   -0.55831017976023
C          -1.36520060862591   -2.99062303742960   -0.01765650222899
C          -2.69210793899388   -2.85877165073826    0.42136070123390
C          -3.14745467155978   -4.15109109925749    0.92942521297123
C          -4.42998231898902   -4.44234864761410    1.31078405598205
C          -5.48333884483535   -3.50184931765868    1.32167638184010
N          -6.37914475416163   -2.78602642213545    1.36058121193691
C          -4.90143687007818   -5.71266403753253    1.70973625277145
N          -5.37366655313734   -6.71020776617602    2.02592587460258
C          -2.02438512912588   -5.07226467606622    0.87118073701995
C          -0.89586880258461   -4.37862164321679    0.20092190220626
O           0.19811337249216   -4.80668103449474   -0.08396983871287
C          -1.99704648619322   -6.28987343792119    1.49540401425168
C          -1.02376288232212   -7.31421488994607    1.47881757857761
C           0.02572317808496   -7.56281421609201    0.61812668142439
C           0.66699317879360   -8.77946900557935    1.01225497991293
C          -0.07077950829160   -9.24762147023743    2.18496988331334
C          -1.07934078121410   -8.40818513383701    2.45938666010435
F           0.24013465932230  -10.36597297319769    2.85147452451519
C           1.73744590352087   -9.40468792081511    0.41600010383574
C           2.39511623792411  -10.59652214112564    0.82197797641723
C           3.41242261711367  -10.88355067884807   -0.06780882027163
C           3.42333454948554   -9.83953920359023   -1.10151287625689
C           2.44170230492443   -8.97714651072883   -0.80442857751452
F           2.10756318505316   -7.89255692737205   -1.50186256165851
C           4.27396526354688  -11.99682042475929    0.02460141065366
C           5.22525520459121  -12.31433327467998   -0.90055423653494
C           6.10835968001658  -13.41553139999113   -0.88300060389946
S           6.93176575976169  -13.79939492916508   -2.36483120442998
C           7.71906640776224  -15.17600043137260   -1.65425111494909
C           7.35345230205481  -15.30579947854705   -0.30846245139981
C           6.47050121971586  -14.31590436358833    0.12569980591256
C           6.01906600656680  -14.20701707852167    1.54871881476097
C           6.93312886168679  -15.01985087633681    2.47798856100220
C           8.22619794330993  -14.37967434309812    2.57737816962746
N           9.24847765948572  -13.87338073025235    2.63272765075125
C           7.10488093155901  -16.44717387452607    1.91780869549171
C           5.80227452737840  -17.04969635833278    1.73902725604498
N           4.76644517820274  -17.50609865311163    1.58545234580577
C           7.85227528341127  -16.40362858646977    0.57642429877037
C           8.57538726556634  -15.96437991013037   -2.45365182043969
C           9.36525363481583  -17.04513471627210   -2.11459800221619
C          10.02663202687402  -17.52301298724403   -3.27924342563510
C           9.59216740296295  -16.63737597724005   -4.36453340286131
C           8.74052040518840  -15.71695180274231   -3.89284422893452
F          10.00115191543703  -16.76882910055849   -5.62808950693046
C          10.87219865882087  -18.60436586083789   -3.38463402104229
C          11.53059930427690  -19.10384293510868   -4.54508909079563
C          12.24604109098150  -20.23635675316267   -4.20736203048383
C          12.06302122463005  -20.48284141048293   -2.77275298570738
C          11.26224245048359  -19.51453620477265   -2.30474909417917
F          10.84279972690164  -19.37370039154451   -1.04085497371969
C          13.01497106843769  -21.01627323991911   -5.09668080121578
C          13.64597705883714  -22.18070289881571   -4.76525308984471
C          14.40458681390633  -22.91474537010217   -5.69581707148874
C          15.12739494703604  -24.05585349180599   -5.48284294092267
C          15.52764140119302  -24.88360022063141   -6.65143454910505
O          15.50098267112350  -24.55882933381140   -7.81469763211192
C          15.90638963994509  -26.19669983376998   -6.08290109809135
C          15.85117732685173  -26.13169008462006   -4.67928455718074
C          16.12823848776817  -27.25870428811039   -3.92223233792123
C          16.46055686135901  -28.42688332360658   -4.59223495352218
C          16.52584248193335  -28.47964187351121   -5.98551876492354
C          16.24632667789845  -27.35767626069455   -6.74914918406864
F          16.85620536064784  -29.62670221318792   -6.58862964976184
F          16.72009945187553  -29.52871347748808   -3.88153140006656
C          15.50447872530592  -24.76477324928967   -4.28053028917718
C          15.71283647275539  -24.23954106610724   -3.03247599134679
C          15.64076505149141  -22.86758201557281   -2.70789170509165
N          15.64186960879578  -21.76779928143188   -2.38001255271542
C          16.12830027749537  -25.00116791136314   -1.91855577461284
N          16.44128272283317  -25.56809706209475   -0.97141088365486
H          -4.34794881446466   -1.47055076285723    0.65072127697564
H           0.35732135495895   -2.04788429350216   -0.89400258213689
H          -2.84298149915311   -6.51676175546229    2.13482259158658
H           0.32191738573091   -6.96016571810775   -0.21638722777035
H          -1.80217670398061   -8.48730028086636    3.24796941954026
H           2.13668600138011  -11.17813382513716    1.68495614646455
H           4.09710115070814   -9.78288752159209   -1.93298139605063
H           4.10641990049239  -12.63576146521206    0.87752911185832
H           5.29965471109552  -11.69660936940639   -1.78556828806137
H           4.99764222162733  -14.59006103058252    1.64490899000166
H           6.02418378699071  -13.15810350672792    1.85676139417573
H           6.49354190291005  -15.05898512114115    3.48181333140124
H           7.66824315817045  -17.06585918533587    2.62643862266332
H           7.73406998663722  -17.36403104690318    0.06775860533177
H           8.91913140385443  -16.25198960226364    0.76934297349271
H           9.50775117515137  -17.46989019335636   -1.14454668039252
H           8.24895152019345  -14.93689617001593   -4.44080380462454
H          11.46528744078241  -18.67053395510072   -5.52407747111611
H          12.51512002944964  -21.27302271716418   -2.20787234732203
H          13.10800151200690  -20.64183809364697   -6.10868263611733
H          13.53494807673926  -22.57120555724056   -3.76622674112622
H          14.36194215057864  -22.59321254213993   -6.73182574616826
H          16.08726734452902  -27.27023074004941   -2.84531112273650
H          16.29306951491263  -27.39625547637148   -7.82577024022225
