98
 SCF done       -199.597379383223          0.000942699518
C          -4.36459710017272   -5.29306540998024   -5.38925273811129
C          -5.17062699675932   -4.23489092586810   -5.78236657670945
F          -5.66519535956378   -4.22343766621351   -7.02491511256815
C          -5.47414000781020   -3.18447366392899   -4.91509365544433
F          -6.26225544200335   -2.18767746442635   -5.33522990415584
C          -4.96626039298040   -3.16037598614471   -3.62575519646330
C          -4.15524596947557   -4.20785052871010   -3.23581740646142
C          -3.85453313253907   -5.27525317223308   -4.10134183640098
C          -3.02033666757637   -6.23883907370578   -3.38318287823885
C          -2.86396613527231   -7.56012729153960   -3.71087212268702
C          -3.31762022233281   -8.12621464908392   -4.91976011808017
N          -3.65165006992592   -8.61993117533288   -5.90048293042469
C          -2.33280630098382   -8.52516511464325   -2.82696446457846
N          -1.99738251768336   -9.36720710967132   -2.12301437180436
C          -2.62935426280331   -5.62145889214997   -2.13663644004079
C          -3.46982216937922   -4.41406754496392   -1.93691931122843
O          -3.54078397877249   -3.72639663531910   -0.94605104966660
C          -1.63484387651963   -5.93224214459496   -1.25445376600072
C          -0.51072051976138   -6.76083891806486   -1.46944673344227
C           0.24702084412432   -7.35705101734157   -0.48110116714166
C           1.28260187321880   -8.12362410840506   -1.08846517328148
C           1.14113941319462   -7.88914688684839   -2.52186079249881
C           0.08249610984682   -7.09791397413123   -2.76517334473439
F           1.97764924590889   -8.39055459245483   -3.43786983140780
C           2.20041515944605   -8.95221302534245   -0.47656519898015
C           3.18449495790890   -9.77389693312823   -1.07551155564306
C           3.84749702761559  -10.48842663439280   -0.09113177303794
C           3.28265134427068  -10.10057273834556    1.20846081709958
C           2.32328868944231   -9.19724079141568    0.96845309048738
F           1.57316177553600   -8.58149167460901    1.88672933515209
C           4.87057768432802  -11.42782953994081   -0.31096148793190
C           5.45064908351101  -12.19122876433937    0.66324032590364
C           6.46801215285480  -13.14060785355619    0.45213831844917
N           6.93555134792044  -13.91970800789695    1.49319341009207
C           7.90221304567731  -14.74572455454485    1.02061030193394
C           8.78574585407383  -15.75108053539529    1.36801414798982
C           9.49037324870122  -16.07879160647005    0.19135598147685
N           9.03746852085888  -15.28788790901901   -0.84490527245345
C           8.06340977901213  -14.46883185323714   -0.37102254913922
C           7.16851397736061  -13.47508494203224   -0.72530594809132
C          10.50056811319751  -17.05229306429347    0.07563666309504
C          11.23954852819845  -17.32111368954073   -1.04263497429201
C          12.24266848476349  -18.30516005802893   -1.12035633119125
C          13.04635391207828  -18.55446836008774   -2.22095636869838
C          13.93484041976494  -19.61503833997138   -1.92254483104907
C          13.60853383179577  -20.01105186220083   -0.54562638437432
C          12.62259298268936  -19.24498661379521   -0.05938967414248
F          14.23783454393116  -20.99299946276932    0.10838343720497
C          14.91681561933564  -20.16823304083228   -2.72011086683772
C          15.79126225602031  -21.24571610997596   -2.41357894211796
C          16.63783315980266  -21.45908395092120   -3.48703795010055
C          16.30761058138040  -20.48288664462492   -4.52692578209893
C          15.28853099031036  -19.73959361176979   -4.06897821030468
F          14.68429214754385  -18.73291454965961   -4.71313182845428
C          17.64598307948762  -22.43392960535102   -3.64064484325518
C          17.96575051473668  -23.38393998884258   -2.71164758519015
C          18.99657895389776  -24.33694525343508   -2.82918512291253
C          19.68727486010394  -24.79818385512324   -3.91960022497009
C          20.99828404473329  -25.45927483218327   -3.68296356418074
O          21.44728822497094  -25.82518802382027   -2.62193713563245
C          21.64782455881151  -25.52498322826498   -5.01152382672364
C          20.75024715755406  -25.06388335194477   -5.98971979064441
C          21.14493293140147  -24.99496836400221   -7.31568462602147
C          22.43457369675047  -25.39738841773346   -7.63144938596312
C          23.31468508844630  -25.86822240401895   -6.65658654733139
C          22.92738245029047  -25.93640821794209   -5.32770925109849
F          24.54745328657710  -26.25256571115838   -7.00836327279871
F          22.84132073692140  -25.32623257650872   -8.90352433483995
C          19.47281986043276  -24.74297924290599   -5.34608631040444
C          18.27241677160378  -24.65675167735626   -6.00452838335458
C          17.02311713122263  -24.58997412812521   -5.35603960424593
N          15.98301638571761  -24.55519009271381   -4.87230460515998
C          18.13803202322120  -24.69250210211815   -7.40755867143831
N          17.97335639187945  -24.69182254746133   -8.54337143890937
H          -4.15606699621243   -6.08289566589531   -6.09261690809228
H          -5.20061312461357   -2.34899751453412   -2.95525701030950
H          -1.68699373355954   -5.42558382552731   -0.29589304731955
H           0.04666328628876   -7.31105057398161    0.57139434059213
H          -0.23699872350362   -6.72304693475672   -3.71795480329728
H           3.36840861739349   -9.84621425594005   -2.12935789767599
H           3.59290888314141  -10.46613120878475    2.16702246973295
H           5.19104268838364  -11.55255174429637   -1.33580088293322
H           5.10540794241004  -12.08691578610827    1.68303245722664
H           6.58519139373532  -13.88131138201127    2.43513135878643
H           8.93681143599020  -16.20852256968607    2.32484500920427
H           9.37065393518298  -15.33599824610001   -1.79175627866102
H           7.02246728206662  -13.02693017011363   -1.68652662568384
H          10.69430203011987  -17.61388455286079    0.97730287429979
H          11.07851172702165  -16.74744535795058   -1.94667319556397
H          13.00793546209253  -18.02846333457211   -3.15470018366890
H          12.18348014784399  -19.30704881236918    0.91614574906518
H          15.78020768054924  -21.79411337995430   -1.49313917857108
H          16.79663621448204  -20.40732683153191   -5.47859186996640
H          18.22365850887152  -22.37764029509476   -4.55473598610918
H          17.44421546960575  -23.36766953036759   -1.76529843465679
H          19.37065677952726  -24.73844862125672   -1.89084549689476
H          20.50324038009198  -24.63625057280079   -8.10383546837733
H          23.60621898144534  -26.29799454283019   -4.57196544497525
