106
 SCF done       -224.332705500966          0.000553591563
C          -3.24924880278601   -4.75927803590070   -8.49201021247676
C          -2.87387283509995   -4.18094174192735   -9.69511917715118
F          -3.62304005816990   -3.19496970295198  -10.20060125291092
C          -1.73592828303117   -4.59822056646957  -10.38726354168778
F          -1.41350450249258   -4.01128394626255  -11.54579120342009
C          -0.93686734020926   -5.61139476028946   -9.88377674627333
C          -1.31121274966426   -6.18591018920646   -8.68501810539641
C          -2.45532144151605   -5.77624691836434   -7.98334841511222
C          -2.56972420612653   -6.57917213428400   -6.76688205165089
C          -3.63084974112220   -6.54552529554576   -5.90059436102375
C          -4.73369026142660   -5.67475082263457   -6.03806611768035
N          -5.65565267393472   -4.99356120958242   -6.09153114442183
C          -3.81032255331157   -7.38124118673698   -4.77645391613544
N          -4.05507892509848   -8.02467962876698   -3.85735590135118
C          -1.41352997309013   -7.45638254303002   -6.70025441737271
C          -0.61678514409640   -7.25942245598536   -7.93646755074870
O           0.41345806277902   -7.79504974284939   -8.27494773394840
C          -1.07803681071158   -8.19956638255329   -5.59789500968184
C          -0.06526670405567   -9.16029458731903   -5.39699253473026
C           0.29032549964669   -9.60010350451276   -4.13093994778651
C           1.33186984118591  -10.56368238264922   -4.24599598454718
C           1.55278400065759  -10.71163836171115   -5.68308618735422
C           0.74336248166500   -9.89284193427036   -6.37416765268263
F           2.44574085114110  -11.56394310637958   -6.19937621099155
C           2.02305476832822  -11.19799879397732   -3.23307252478165
C           3.08288508726658  -12.12811030161957   -3.34617560286619
C           3.53249161083074  -12.46080700386415   -2.07447337136408
C           2.71905929509110  -11.72533586795539   -1.09855190076615
C           1.83305365726687  -10.99465940030628   -1.78746045450985
F           0.90725464592224  -10.17986132614480   -1.27732035553355
C           4.58826418105625  -13.30630503374360   -1.70351536939381
C           5.32736335748287  -14.05882466236387   -2.58292022899061
C           6.43316341635745  -14.83072678144135   -2.20745504060213
S           7.11214350259521  -14.59268616311429   -0.62532004329613
C           8.51558178906182  -15.55053191511752   -0.95936764854379
C           8.38389922539064  -16.17993791351165   -2.22032051179404
C           7.21359144377421  -15.76950408471393   -2.93522401411892
C           6.94633990682356  -16.35989445440885   -4.19383189596688
C           5.70598822535799  -16.07958936762545   -4.99392442325304
F           4.57703521279291  -16.21945356596845   -4.27444723484815
F           5.67884962211483  -14.83798546331481   -5.51821590186868
F           5.57270188525688  -16.90974135301685   -6.03637260883070
C           7.82478603214012  -17.29070668763833   -4.70449055419092
C           8.93803842938850  -17.72138934684411   -3.99120357118445
C           9.21471064833031  -17.21261498190636   -2.73739334363035
O          10.20151118135979  -17.66258976566230   -1.94417072804845
C          10.99394847281450  -18.75083532587171   -2.36971798399028
C           9.53831867566361  -15.47533576737190    0.00333768122940
C          10.88379347839651  -15.63384784570926   -0.18712253914535
C          11.85007223885885  -15.45408641226013    0.81987235646893
C          11.68120029109818  -15.15714321355308    2.16413960994244
C          12.95216776113604  -15.04388346623836    2.77832952078505
C          13.92557820088483  -15.30679354139663    1.71003379500684
C          13.28950709022698  -15.55094771658851    0.55617081992428
F          15.24841917037867  -15.30466748097546    1.90243841130693
C          13.24460565930024  -14.73070996216368    4.09080385232839
C          14.52096387982630  -14.55479219235590    4.68987596183636
C          14.35527372991472  -14.21805188657716    6.02121034065084
C          12.91961139732773  -14.18744779834179    6.30922275283874
C          12.28196715078726  -14.48365927732799    5.16624263197351
F          10.95661535168745  -14.56324733934105    4.99546174411673
C          15.40179502281223  -13.90910855898942    6.91344284339136
C          15.25328987374108  -13.63312523031435    8.24192085977043
C          16.31239653120008  -13.34160712847022    9.12883946907450
C          17.56648964108150  -12.85601951972949    8.87873913178117
C          18.62240254747392  -13.05131693992951    9.90857411867826
O          18.46614727257762  -13.42307794006659   11.04747648847193
C          19.89668994644526  -12.74370260074109    9.22083343455640
C          19.62405766926275  -12.26993056795671    7.92569627103578
C          20.66544750761312  -11.94552394682995    7.07146100768621
C          21.96185641423889  -12.09891701990751    7.54030528083672
C          22.22436689818425  -12.55673369002575    8.83239502027368
C          21.18750235063972  -12.88670335027947    9.69052527320544
F          23.49092886798988  -12.68307697536670    9.24396976143152
F          22.98273763608183  -11.80410307664730    6.72905266367044
C          18.17224886230614  -12.19717492007854    7.74329133712790
C          17.54384641085513  -11.42623969976422    6.80017809774713
C          16.15650936386183  -11.17692422244942    6.77875248365441
N          15.04062458190687  -10.91446433464035    6.72827579282493
C          18.21911009272307  -10.72359756759146    5.78036512124986
N          18.71631148439777  -10.14544950351853    4.92286293817663
H          -4.13433338217667   -4.39660908575044   -7.99604117588490
H          -0.05446256334725   -5.93626053748531  -10.41173528373908
H          -1.66578898508646   -8.01655684357819   -4.70496725685534
H          -0.13175132600864   -9.25197221402052   -3.20791007145800
H           0.68910789865960   -9.78022834922048   -7.43691731946209
H           3.47444658990929  -12.49216942017436   -4.27502361231123
H           2.83394282276525  -11.78611414369699   -0.03404369240255
H           4.82040451766502  -13.36378136487431   -0.64670273215492
H           5.04629023610305  -14.01765974247042   -3.61932796750595
H           7.63124271914521  -17.73378641879896   -5.66839626621840
H           9.55955906884582  -18.48521168495524   -4.42644045963612
H          11.67486170183901  -18.94967613348559   -1.54391587096853
H          11.57105273638962  -18.50107065792948   -3.26466712829704
H          10.38503856244430  -19.63836353742109   -2.56062746330246
H           9.20911080660849  -15.13108710936566    0.97577951800693
H          11.25693005052308  -15.86631435005679   -1.17194015490462
H          10.74869685292086  -15.02125537050902    2.67409283591789
H          13.72572373698375  -15.77431758800121   -0.39786008568062
H          15.46023508375363  -14.65246628434866    4.18135840710992
H          12.47297779475787  -13.95117578722008    7.25384174018687
H          16.39977333022618  -13.93774582201566    6.49257558904392
H          14.27286146709444  -13.72750679670401    8.68624587648593
H          16.14391602078561  -13.59564043071988   10.17196860562472
H          20.51294167697598  -11.59199044956883    6.06477508156828
H          21.38830620404515  -13.24255848354886   10.68840524155412
