99
 SCF done       -215.671998035508          0.000452472013
C           0.87989742654870    0.99912852895816    0.09848326417794
C           1.55300230642060    1.91677446563178    0.89057237009733
F           1.15795393247165    3.19337030080114    0.87885363678759
C           2.63121443820262    1.54218938779610    1.69493782556476
F           3.24965531336697    2.46220152708523    2.44225154783895
C           3.06556834615155    0.22738762654265    1.72322359765874
C           2.39234827126686   -0.68634533538652    0.93599584373812
C           1.30721383449939   -0.32017710142240    0.12389153664330
C           0.81895636417289   -1.50834020952159   -0.57413743863950
C          -0.27823222064293   -1.54646055478869   -1.39261959487427
C          -1.05713472515842   -0.41552498736051   -1.72330173325525
N          -1.72535853762168    0.46252668424612   -2.03744740014376
C          -0.81140181558701   -2.69965243275341   -2.00964214628077
N          -1.32566414179638   -3.58085174713188   -2.53594710815218
C           1.66189419494259   -2.62799501302547   -0.18870155231515
C           2.67360097601448   -2.13087574207315    0.78021552231567
O           3.58996247059840   -2.73251606777291    1.28935954343039
C           1.61230798899709   -3.87596238344393   -0.74692240451538
C           2.28561292372357   -5.06277458151404   -0.37679628479339
C           2.42568186659718   -6.13887740568196   -1.23371613611453
C           3.15436067070141   -7.17110535928328   -0.57108660801499
C           3.39849131387682   -6.65697792478048    0.77706831622107
C           2.89386763295100   -5.42053342611135    0.90922834477833
F           4.02697221136844   -7.36352509025323    1.72070601896378
C           3.57354706334914   -8.38027093150086   -1.07966452262406
C           4.33105575587458   -9.39024274327717   -0.43187982523739
C           4.58399820786511  -10.41796080533554   -1.32823268850033
C           3.95084267914341  -10.07172327004856   -2.60775636152838
C           3.35937933652117   -8.87989959137103   -2.44649895526759
F           2.67448111508903   -8.20458120759008   -3.37151271238294
C           5.34168121970940  -11.56521188251480   -1.03879447003143
C           5.66509944918807  -12.52735011045555   -1.95848045940093
C           6.44930388460835  -13.68230639033983   -1.74557884922618
C           6.96863350756275  -14.14125996233648   -0.50146210629317
C           7.86133705474881  -15.26959565535877   -0.42053159843248
N           8.22118241460878  -15.73366003096057    0.78166964303146
C           7.83990411393946  -15.11317167933891    1.87040018889286
C           7.04975547117546  -13.92511639552290    1.78391286774406
N           6.61656395754219  -13.50221940952504    0.62132408744668
C           6.68585017255033  -13.21186707948038    2.95418262624863
N           6.41101404394014  -12.65022204337879    3.91335740329243
C           8.18875884574675  -15.65062017703545    3.13596057185527
N           8.45268448379466  -16.04981862231614    4.17591257047637
C           8.34139890625379  -15.95775131371574   -1.57556235081470
C           7.72525804189883  -15.58043602626890   -2.79479450483028
C           6.80229671435665  -14.47488679699227   -2.86775376886120
N           6.37107943250773  -14.26909321751193   -4.11194742640181
S           7.04127807996343  -15.35030439237646   -5.08775000556874
N           7.92274046124805  -16.12495840423001   -3.99653921216502
C           9.37438028625670  -16.92442581554507   -1.50333090222731
C          10.24914718737583  -17.14038209532781   -0.45053687448857
C          11.15095765589388  -18.18268443290942   -0.79900883060521
C          10.75927514877206  -18.59308875233078   -2.15217294110209
C           9.72698702733450  -17.85363583787602   -2.58327759745047
F          11.37533143008162  -19.56588150333875   -2.82840094099330
C          12.19257614130639  -18.68055910975961   -0.05048656366166
C          13.11843534288382  -19.70687107465813   -0.39170947643637
C          14.04138579502630  -19.84337164697747    0.62695370794520
C          13.68447401983901  -18.90145552183427    1.69554504362608
C          12.59581026066246  -18.23233187239180    1.28876727748344
F          11.94766090830287  -17.28383205572721    1.96789010419451
C          15.11379958110405  -20.76838715307718    0.61331831664158
C          16.21005815584732  -20.78610267716566    1.42434641848176
C          16.63582451391834  -19.73228704961741    2.26611783918559
C          17.58850279677791  -19.79063640018483    3.24099370529006
C          18.23032888667234  -18.54147180501974    3.72928281861635
O          17.86332606333629  -17.40931747283975    3.52417504551306
C          19.43381435675024  -18.99185434493448    4.46443886553807
C          19.45808199577358  -20.39795168640734    4.51069145376840
C          20.51336623862022  -21.05452462616740    5.12330196555120
C          21.52237801216617  -20.28343161157206    5.68107287689794
C          21.48512288148484  -18.88818571546711    5.64233678483327
C          20.43417998257078  -18.22508670846855    5.02927122385618
F          22.47705991432064  -18.18571502768639    6.19909536624718
F          22.55589716081138  -20.89496051572062    6.26668751463410
C          18.24565575071233  -20.91312778242016    3.87303140236930
C          17.73348042842576  -22.17315814665619    4.03046281742654
C          16.42190803316035  -22.53984193258423    3.65604241719902
N          15.34783051387188  -22.86982216318993    3.42493360573453
C          18.41421796230251  -23.22115462416336    4.68647804251211
N          18.93703093400072  -24.10939132913401    5.19008345509647
H           0.05728275406289    1.34214717757076   -0.50696481170337
H           3.89927538894004   -0.06815130817807    2.34011492855113
H           0.98413936432435   -3.99474022406555   -1.62249966097850
H           2.07897137082690   -6.18095569238104   -2.24818462023558
H           2.91845560624307   -4.80328083788276    1.78279891718581
H           4.66481153321423   -9.35549840935786    0.58672512297382
H           3.96024713947441  -10.67067903275757   -3.49636502564332
H           5.70091915601591  -11.66296694938269   -0.02469015095897
H           5.33812453809585  -12.40878982742478   -2.98298301245957
H          10.27158847840791  -16.60000600332873    0.47325403527451
H           9.22172877056941  -17.91138763992949   -3.52562923432019
H          13.11507262402034  -20.25657415207917   -1.31272308786560
H          14.17047478630928  -18.81736581557822    2.64663915464138
H          15.02018687194316  -21.56250360363991   -0.11669594787290
H          16.86081923461624  -21.64899450607752    1.35929059801420
H          16.26897526568483  -18.73584064686271    2.04800795445326
H          20.58664093194419  -22.12865089741902    5.17613818385956
H          20.40409536395549  -17.14759816036340    4.99747361281587
