108
 SCF done       -214.995109876903          0.000670705458
C          -5.27257943467690   -2.51447655320082    0.10067968295778
C          -5.80327896630881   -2.03653972261259    1.28925830842651
F          -6.63845955496975   -0.99208791715580    1.25162190578057
C          -5.48603854776967   -2.61382987858995    2.51951956642247
F          -6.02342471219681   -2.11917397674792    3.64137057212032
C          -4.61842738482905   -3.69123331901015    2.58989860460853
C          -4.08914906405542   -4.16522134745824    1.40576659389591
C          -4.40457096340051   -3.59413295290051    0.16368205033266
C          -3.68929304756478   -4.32589288063138   -0.88030671097226
C          -3.86337543682285   -4.14159383871543   -2.22688621980695
C          -4.71495551899705   -3.16384037545400   -2.78518137277956
N          -5.38473484024975   -2.38867788596917   -3.30259262489338
C          -3.26913873307334   -4.90861335225187   -3.25276293787853
N          -2.85895858495142   -5.48834474723300   -4.15512577361588
C          -2.85095726662120   -5.32157688204941   -0.23448544431387
C          -3.13189901718826   -5.28156123834538    1.22033590168683
O          -2.66997805569389   -5.95861469643025    2.11055779522629
C          -1.88004873842999   -6.03611126436286   -0.88884983999802
C          -1.04815645021912   -7.09335585867297   -0.46640777284571
C           0.02815217134563   -7.52857116928383   -1.22526765351123
C           0.65964220496090   -8.61867762079163   -0.56068207843329
C          -0.13517013684243   -8.83523215960846    0.64418027450715
C          -1.13792386015312   -7.94482132640977    0.71961296999793
F           0.13108653169126   -9.80500498654352    1.53138270205168
C           1.79112637830551   -9.31071043260822   -0.93687437644481
C           2.42390551945953  -10.38909934070029   -0.27646719968071
C           3.56673547531064  -10.74259848406538   -0.96653076127656
C           3.68404853273533   -9.86605539038528   -2.13972773900134
C           2.63156286491753   -9.03848986963613   -2.11747827297536
F           2.35885596009091   -8.08330682052821   -3.00883453679364
C           4.46629980373473  -11.76139629739528   -0.58305373471945
C           5.63723009677918  -12.02686209715204   -1.21737519445438
N           6.50600470981671  -13.01319304077360   -0.90109000754500
C           6.33432291623896  -13.98241182893098    0.16250492800133
C           6.67786355158410  -13.39039995442605    1.52854675853865
C           6.57309857381617  -14.44412189924173    2.63178547194232
N           7.09020930301480  -13.86728426669738    3.85851319543639
S           8.72676125191669  -14.37706295790080    3.99225023496474
N           8.40403420039814  -15.93140364848978    3.32950600582287
C           7.42640566796878  -15.72359094135306    2.27869542079994
C           8.19176418717757  -15.53342029503933    0.96849728060935
C           7.26577614422440  -15.17051408259640   -0.19321965437720
N           8.02769598575166  -14.76755388463113   -1.36423283876983
S           8.10404346679727  -13.06633153365678   -1.47102830522451
C           8.87186730174159  -15.60233830474935   -2.01476839267732
C           9.82805360861654  -15.18197844106752   -2.87854610943000
C          10.70334353012946  -16.02732902992424   -3.59470610770406
C          11.73768937097517  -15.61209322582944   -4.40847391544914
C          12.42405407354996  -16.74385671604618   -4.91019358500120
C          11.70947853321890  -17.90340854184550   -4.35086007221353
C          10.69891897716622  -17.49573739505778   -3.57218550250718
F          12.05055843313951  -19.17185356683178   -4.59972512028103
C          13.54166508237638  -16.78710551605392   -5.71621298136562
C          14.25127065753585  -17.92901723218988   -6.18343511875065
C          15.34545499802395  -17.51308732915050   -6.92118243682211
C          15.34195353039164  -16.04967255980713   -6.95479065875624
C          14.27597115277216  -15.64010214091058   -6.24870567888602
F          13.90876284597702  -14.37060369953586   -6.03298403014504
C          16.29612424133747  -18.36544249666581   -7.51774430743690
C          17.42819937460537  -17.95238425590473   -8.16252350089954
C          18.34047507206284  -18.86317976880391   -8.72029117756291
C          19.49529899462470  -18.59935107492726   -9.40844983798823
C          20.50416135854093  -19.67714856643604   -9.55539895412834
O          20.34856483084309  -20.85689483469933   -9.33942226089836
C          21.74985755294226  -18.98941610914895   -9.96656646307338
C          21.48526547126195  -17.62215401725560  -10.15855037638886
C          22.51271565956228  -16.76055041281856  -10.50693694705580
C          23.78440239824127  -17.29305066791363  -10.66056298452853
C          24.03577141206752  -18.65350540272938  -10.48179289390709
C          23.01384419601862  -19.52058026559600  -10.12952344097411
F          25.27810184796427  -19.12440162721367  -10.64645376375314
F          24.79339586888080  -16.47633823388321  -10.98418518183591
C          20.05373108659400  -17.38321897718317   -9.95059618314597
C          19.37577464501165  -16.27828067578660  -10.39681967504049
C          17.97081998507878  -16.15958964176463  -10.45283536750463
N          16.83906289596833  -16.00958063188682  -10.57194202586436
C          20.00299124821737  -15.14800337246821  -10.96248252254794
N          20.45867808986587  -14.19489583988456  -11.41094611827785
H          -5.54645691597916   -2.03001801694073   -0.82194151273268
H          -4.36729067702060   -4.14000286142791    3.53773786812515
H          -1.68837172282931   -5.73960817242559   -1.91443107460530
H           0.34643711646518   -7.10508815411926   -2.15847755004952
H          -1.86995357974176   -7.85443509572063    1.49501873089882
H           2.07333259870025  -10.84621063752058    0.62747827744708
H           4.46103045630947   -9.89826254721313   -2.87710786577923
H           4.17355895893412  -12.33810011730192    0.28235524733479
H           5.95557526575520  -11.43261206074694   -2.06101662567512
H           5.28925881141508  -14.30926160463613    0.15287707998644
H           5.99864073692796  -12.57015430463645    1.76042236888538
H           7.68909424401501  -12.98207365221778    1.52323621184898
H           5.52308925805546  -14.71962842123179    2.77190927963527
H           6.55548356111964  -14.13083860373409    4.67945418519204
H           8.08778007851519  -16.57717688804495    4.04596179781236
H           6.77920649746098  -16.60236179657153    2.20107848776551
H           8.72699479747038  -16.45617745977870    0.74278374857522
H           8.94026461739734  -14.75307492347965    1.11387007420958
H           6.66662620904746  -16.04565028041872   -0.47278037898639
H           8.71850892789629  -16.64974848644372   -1.80203458970763
H           9.95869233068303  -14.11582469102395   -3.01990785990514
H          11.99412701775181  -14.59317040591322   -4.61978347284516
H          10.00792060451144  -18.11746522652525   -3.03849774265922
H          13.98638614236496  -18.94794006338067   -5.97801211872519
H          16.04599380606200  -15.43177155578627   -7.47506377129284
H          16.09563668105837  -19.42809918245835   -7.45240401410679
H          17.64739021054950  -16.89786338489277   -8.21306887188497
H          18.16949951020600  -19.91634257446228   -8.51911563811354
H          22.37074084088168  -15.70218561983265  -10.65230810184292
H          23.20536810766874  -20.57218962282407   -9.98766365022588
