100
 SCF done       -215.568130735116          0.000796152750
C           0.78083630745382   -0.61860868149305   -3.78027642774913
C           0.59518803443581    0.75535146611544   -3.74005360747550
F           0.74602913601727    1.46280525410349   -4.86375695998574
C           0.25901955013579    1.41458869552242   -2.55614863261345
F           0.08353199054013    2.74031074886451   -2.56600598015556
C           0.10848341832697    0.71137312589877   -1.37154144690464
C           0.30256944585619   -0.65566361980844   -1.40757495703038
C           0.63148332109380   -1.32741034495617   -2.59926610822493
C           0.72654749610423   -2.75974131018618   -2.31916726716838
C           0.61730940761488   -3.76591295224839   -3.24153093358205
C           0.59955663595248   -3.55149063809654   -4.63552772494631
N           0.60715044388953   -3.41950477205471   -5.77512553736167
C           0.39959859000004   -5.11780897337484   -2.89355121741765
N           0.13892669063897   -6.21199577320507   -2.66775814091626
C           0.67930081808718   -2.91859529155297   -0.88231807544078
C           0.22864683726424   -1.62912679203397   -0.29262713833730
O          -0.07977149533025   -1.42013550686332    0.85549882450303
C           1.04324090891650   -3.95639414467885   -0.07673257943503
C           1.85882241228122   -5.06792365984786   -0.39543742881560
C           1.92217150481897   -6.24528900734187    0.31787202818244
C           2.87438634831862   -7.11257920174134   -0.29740744166034
C           3.42428637910544   -6.34453052280767   -1.41395895338594
C           2.83482906295598   -5.14075782389971   -1.48859120489358
F           4.39815181080287   -6.79599701465654   -2.20900669443652
C           3.22298854518708   -8.39269202841547    0.06995207751602
C           4.16013843762733   -9.26010265993114   -0.55326935545678
C           4.22286640321590  -10.44415928170613    0.15847734123477
C           3.28716034688638  -10.34868762467244    1.28683287418406
C           2.70314382838028   -9.14497577931110    1.22174719663393
F           1.79161086331997   -8.65571324584865    2.06521828493367
C           5.02854063660104  -11.57707168775282   -0.07737427549647
C           5.88632753552553  -11.70473381761416   -1.13393922428856
C           6.70666332928826  -12.83687255160848   -1.32067240657299
O           6.67948519907679  -13.82553169847914   -0.40691763522494
C           7.55503765376484  -14.78491618107507   -0.77193626767960
C           8.18107899866131  -14.41365453629174   -1.98619339308582
C           7.63264431726617  -13.16272646263045   -2.33384738292777
C           7.95144846286600  -12.33002114479210   -3.52850977893829
F           7.26315797783666  -11.18786455893766   -3.59145144612769
F           9.25174409891362  -11.97443674026868   -3.57674074408496
F           7.70004921354593  -12.97145188887029   -4.68720474042886
O           9.08291313380914  -15.23448085050212   -2.51643607550606
C           9.74815473233780  -14.94625302175613   -3.73467199869931
C           7.78923475680701  -15.94463310283569   -0.01989877535060
C           7.15014595064511  -16.26302018209399    1.14738487620648
C           7.41998175547331  -17.41891770681827    1.90425451212881
C           8.36928807324110  -18.40177413045827    1.67274985130929
C           8.29330749838625  -19.37446080912489    2.70008646199064
C           7.21412182538926  -18.91705688843759    3.58814760502096
C           6.69783194662079  -17.76708290713241    3.13338708774085
F           6.84078852828771  -19.57812268962270    4.68719645386173
C           9.06331921314425  -20.50765412260274    2.85768701380908
C           8.98384971452893  -21.49990669881548    3.87406124817635
C           9.94901440781765  -22.46260117153733    3.64434355398758
C          10.69312718313753  -22.08570408656306    2.43964490050019
C          10.15892445813058  -20.94150669060440    1.98738733863055
F          10.55216594213349  -20.25895006002729    0.90553601465220
C          10.14481302141385  -23.62486569411257    4.41956389653007
C          11.14177626870159  -24.53583939210735    4.22344724375681
C          11.36335077301199  -25.69039959615549    5.00533496226861
C          10.51675665683673  -26.40730676392407    5.80489530795051
C          11.11209770103381  -27.31703275236239    6.82187310294388
O          12.27027791427015  -27.65081837084480    6.90641190146944
C           9.99581606629908  -27.67432200837708    7.72490332283695
C           8.79901349629137  -27.13547890685596    7.22121737971673
C           7.61300350465831  -27.31019766227988    7.91606848751689
C           7.65400395550749  -28.03093443677025    9.10055659679417
C           8.84391503539372  -28.57592028856964    9.58608484694564
C          10.03459463566308  -28.40027799975946    8.89912994445706
F           8.83444631243741  -29.27070619219280   10.72903344246339
F           6.52375967480853  -28.20206063447643    9.79351890882814
C           9.07939498129973  -26.46384698895480    5.94936145005542
C           8.13806391581142  -26.18480883907865    4.99300767187872
C           8.44371791537315  -25.76411774001715    3.68292524987125
N           8.63746622185302  -25.44886877794186    2.59686248021862
C           6.75077137584636  -26.36152174956395    5.17819616423862
N           5.61315834700981  -26.47025490659912    5.28107455422311
H           1.04175007855590   -1.08520666543849   -4.71642286255069
H          -0.15153789045899    1.21988678351688   -0.45685182584590
H           0.72561419741879   -3.87436864183368    0.95804789174998
H           1.31395852635855   -6.49801894879426    1.16412623099076
H           3.07086527863430   -4.34963269816216   -2.17292979660890
H           4.72199267351119   -9.01384701226633   -1.43176676786032
H           3.12003520238875  -11.11999166238285    2.01294214825439
H           4.95666998962784  -12.38931321847762    0.63328126168417
H           5.95134554538177  -10.91296860762736   -1.85950254641837
H          10.41099615771760  -15.79447951993893   -3.89668021465328
H          10.34266636150033  -14.03407558517843   -3.66244888840244
H           9.04679365076434  -14.87375427470274   -4.56751684414492
H           8.53859429920062  -16.60242650737826   -0.43224776251368
H           6.38972256157985  -15.59000992057620    1.51994784879986
H           9.06093674184556  -18.43526044224049    0.85545490697981
H           5.90294683695739  -17.19011236502478    3.56403126849695
H           8.27765619466715  -21.49922521065472    4.68150886451050
H          11.49910187836173  -22.63743754499565    1.99941165191472
H           9.46457232079736  -23.75680311403298    5.25215395412949
H          11.88664847140281  -24.33087784470214    3.46788132215509
H          12.38869794110392  -26.05051493783391    5.03339150261008
H           6.67062456846192  -26.90598027275772    7.58402019967006
H          10.95538061760938  -28.81886834022557    9.27290395472866
