109
 SCF done       -222.427276833800          0.000763714311
C           1.49208196349898   -0.40586956889166    4.75989824537429
C           0.69361097633389    0.57830894863299    5.32331215222172
F           1.20291475960008    1.35414314785377    6.28550337628868
C          -0.62598481247399    0.77459811785897    4.91244371693178
F          -1.35706973654941    1.74075741334402    5.47962692509194
C          -1.18736667378687   -0.02142186615832    3.92665641222796
C          -0.39700066438362   -1.00855800255115    3.37128438779224
C           0.93670019960876   -1.20491587517686    3.77369266642881
C           1.51303577772528   -2.28517302806627    2.97403139092356
C           2.84907949992367   -2.50124255012669    2.76515732126025
C           3.87056507422946   -1.83159182549623    3.47029443295126
N           4.73059170108769   -1.32676720122917    4.03791505904829
C           3.35171953496143   -3.33844234431407    1.74430309583488
N           3.81610898396835   -3.93295996500068    0.87969000892010
C           0.42907645064682   -2.89838264912726    2.23825089585726
C          -0.75339338975189   -2.00199808406574    2.33004772946662
O          -1.79193280335193   -2.09707259061845    1.72171464568821
C           0.33938874690652   -4.10723951465897    1.61462502761363
C           1.18795061862405   -5.22963357218437    1.77186899633282
C           1.32157280581201   -6.26990108749309    0.87913671462833
C           2.27283967470965   -7.20455349798680    1.39235450707401
C           2.65420406383123   -6.67946892940242    2.70211053622812
C           2.03262297162077   -5.51246962412068    2.93644855313276
F           3.49117267094586   -7.30588607546218    3.53362256905355
C           2.75931171756381   -8.34160137997734    0.79207807702954
C           3.74055824922631   -9.24644654166556    1.28087258114391
C           3.95370980889098  -10.23819060835411    0.34572718003858
C           3.07152752433654   -9.98084360221245   -0.80439452300501
C           2.37730471016669   -8.86976300854008   -0.52830509389751
F           1.45734830805608   -8.29488777237250   -1.30755372741314
C           4.86804804010100  -11.30347939203023    0.49909756923130
C           5.11893836300182  -12.24528386221854   -0.45044018895676
C           6.05479720216147  -13.31090185479241   -0.38835213019443
S           6.57732090872695  -13.91188988126320   -1.93886696025048
C           6.70038830918007  -13.99647563040319    0.64550489184683
C           6.33046200351558  -13.88543873569823    2.07703039197467
O           5.46792135168787  -13.14201517957538    2.51080666432905
C           7.07328044793489  -14.79461047140057    2.92852145705904
C           7.00747088866594  -14.95860067101863    4.29603733971001
N           7.87852349299991  -15.93016556494462    4.65536987164508
C           8.05078928144859  -16.43469223915514    5.99481229633717
C           7.04530759894173  -17.54438394369440    6.29463802597523
C           8.49801402363413  -16.41414429361278    3.55393053792195
C           8.03047616909478  -15.72964561931401    2.45204471547098
C           8.38624243131168  -15.87927905841192    1.05479573173892
O           9.17190305096239  -16.72301380411571    0.66077235646750
C           7.66762721961290  -14.92870389073519    0.17118638550244
C           7.75812369411120  -14.96482818360700   -1.22140229778955
C           8.60603135796049  -15.66586325169385   -2.12186554267072
C           9.89400127478136  -16.03179213406103   -1.89122962591356
C          10.70568645120830  -16.73857493638025   -2.81079465561143
C          10.36720836594284  -17.34384530361634   -4.00285153881314
C          11.51829212493347  -17.98642204273188   -4.54074650038730
C          12.60110262120075  -17.70504263243545   -3.58555275083472
C          12.13459936081579  -16.97707883619556   -2.56388227714665
F          13.85761461882448  -18.12963353034391   -3.75491873090198
C          11.62116038690143  -18.74319954276419   -5.68449672783173
C          12.77103710094367  -19.41654563088667   -6.19313204230664
C          12.42702545548716  -20.09552839176940   -7.34395468394507
C          11.00684036300637  -19.85217694036593   -7.61180846812085
C          10.54968968870701  -19.05692153960203   -6.63254693173984
F           9.30144806923056  -18.59226406266925   -6.50694423234834
C          13.30453817592816  -20.90959751251525   -8.09291127719890
C          12.98086952608039  -21.57494996201251   -9.23821456850398
C          13.87272487635499  -22.35791268344652  -10.00462770499969
C          15.05362651517998  -22.95890284005909   -9.66665697968342
C          15.98675740853816  -23.34027174932879  -10.76181390220502
O          15.74359674549009  -23.37102998941866  -11.94487197690867
C          17.27689665093796  -23.62116123367282  -10.09316021224842
C          17.10405890944302  -23.54978929760442   -8.69996234303298
C          18.18585654763637  -23.74082064470848   -7.85567654697786
C          19.41966071665290  -24.00681912260279   -8.43102302373561
C          19.58016734655086  -24.09100348608412   -9.81493662524308
C          18.50336943960231  -23.89663098396878  -10.66515196034869
F          20.78796843559694  -24.35686828315200  -10.32518714837277
F          20.48034397035199  -24.18214923091566   -7.63625350181793
C          15.69281886607124  -23.28262377427375   -8.41052059295138
C          15.08066998716905  -23.54575654349777   -7.21288095826270
C          13.68516031053997  -23.50726152397469   -7.01731742653204
N          12.55585483529196  -23.51892484401995   -6.81474613673965
C          15.76706290215168  -23.96127002152672   -6.05270985136984
N          16.27938648955713  -24.28814991411724   -5.07954156306198
H           2.50518962621384   -0.52297973468198    5.10927288571517
H          -2.20654383565134    0.13027119078556    3.60867025037018
H          -0.52783800119494   -4.24101088985662    0.97591698785640
H           0.84418678094300   -6.33899822641847   -0.07863274984331
H           2.08460500985261   -4.92254471335655    3.83063441618210
H           4.23807637279086   -9.16522133796732    2.22699627034520
H           2.99985639068282  -10.58012907829261   -1.69010901207355
H           5.38580529028656  -11.34249036242737    1.44473003810106
H           4.62987154531365  -12.15105340063266   -1.41239183247365
H           6.40566042462587  -14.43622528266378    5.01287078086496
H           7.91690076064244  -15.60855337904470    6.69778060315556
H           9.06997922486562  -16.81645715775728    6.09283321895073
H           6.02868085380751  -17.17034218495857    6.20122865407091
H           7.19006212761889  -17.91237871780356    7.30617655638558
H           7.17483560144460  -18.37106377694764    5.60032769244720
H           9.22915311810656  -17.19625814449976    3.60576991520060
H           8.18761749337821  -15.82952144188692   -3.10713792795699
H          10.35961644132743  -15.77406231206883   -0.95230044284004
H           9.39568863652364  -17.36777730068990   -4.45476763177962
H          12.67427461532597  -16.62111515264137   -1.70840217408858
H          13.74200538380172  -19.40573681563773   -5.73778519063854
H          10.44525592811659  -20.24846043336393   -8.43378071297251
H          14.32221507976603  -20.95771233561593   -7.72512455239592
H          11.99449407383000  -21.43697846997699   -9.65740626560441
H          13.62872882616661  -22.45240255074438  -11.05963872793249
H          18.11262757261073  -23.68200692966660   -6.78196653773821
H          18.62561557464251  -23.95837323121595  -11.73470602086000
