91
 SCF done       -199.265963634665          0.000442022234
C           6.43580573912193   -3.74595589840791   -3.76899347099386
C           7.56109166112593   -3.85290692837035   -4.57017214313037
F           8.02457890437054   -2.75935934698824   -5.18492857435343
C           8.22210670247391   -5.07050620484253   -4.74888015148484
F           9.30361842652141   -5.12477412196351   -5.53328074728944
C           7.76984909459733   -6.21758048460116   -4.11859185870150
C           6.65208534376410   -6.10958194667893   -3.31321684347248
C           5.97400557485455   -4.89134178527889   -3.13591183748320
C           4.84072270403554   -5.09701498727845   -2.24041259770380
C           3.85577951048465   -4.18780251449428   -1.98327756792197
C           3.76225842323778   -2.93245082952058   -2.62080393422817
N           3.60192889490770   -1.92195980545607   -3.14104315777807
C           2.74762255317853   -4.38421667619438   -1.12847855759759
N           1.82384657188524   -4.45127998448015   -0.45074489587616
C           4.90077683083569   -6.47777095584990   -1.77643066223934
C           5.98640661803168   -7.17148167324483   -2.52815354676110
O           6.23931964662173   -8.35151238960502   -2.54162669927045
C           4.04694398416897   -7.07811718962907   -0.92058479947155
C           4.09677704893297   -8.46134803220382   -0.50367692676783
C           5.19963622853899   -9.11176764015735   -0.03217097948701
F           6.40382084789000   -8.58364249659090    0.14096321931786
S           4.90395146479996  -10.71770701458922    0.53440989386094
C           3.23942816550290  -10.51869139022243    0.10528329824891
F           2.39217524331620  -11.52780377222881    0.28918692130793
C           2.92502960394981   -9.30106675649954   -0.43219758224543
C           1.61053149298804   -8.93221361117041   -0.88565760762113
C           1.37734868632835   -7.93593939668401   -1.76098802939250
C           0.09577079770511   -7.45813298208420   -2.14817004316918
S          -1.37500323244579   -8.21808091974810   -1.60445486717637
C          -0.16723327346796   -6.33920461407866   -2.92652408452136
C           0.85714183977043   -5.46037403010612   -3.51897901920333
O           2.06526920178272   -5.65909082504659   -3.43451799676560
C           0.28981814383884   -4.31881707373727   -4.20860346212601
C           0.91858281815002   -3.25333039398331   -4.82223029864226
N          -0.02339927976783   -2.43121694225585   -5.33638249850169
C           0.23563028663328   -1.22194323132222   -6.07753433873270
C           0.07862900170639   -1.45598082055144   -7.57806309604218
C          -1.25484910993621   -2.93850775702365   -5.09720284946039
C          -1.10940890151327   -4.11156747887440   -4.38805151916002
C          -2.12234244371936   -5.01820211439396   -3.89736184810345
O          -3.31260848010783   -4.91261933118775   -4.15824052868392
C          -1.56345583099496   -6.10006459953058   -3.07182219538510
C          -2.34668838686586   -7.02890600029014   -2.40801318130103
C          -3.77774559010419   -7.02701978829096   -2.37631082252828
C          -4.55790989475179   -8.11670426497891   -2.30634026754644
C          -5.99945104354411   -8.09370507113102   -2.42296566832257
C          -6.79297742025002   -9.04717017138998   -1.85360623947372
F          -6.36767932044946  -10.08037536378436   -1.13058846602381
S          -8.49473912324628   -8.82464331468693   -2.08355327552644
C          -8.13399720023412   -7.40299483578644   -2.99442639275937
F          -9.14078668689053   -6.74087724447389   -3.55656990423138
C          -6.80043103665958   -7.11498700471601   -3.12874992200094
C          -6.25694361078148   -6.03316643540405   -3.90200376142970
C          -6.89115965835211   -4.88496570439168   -4.23584248095975
C          -6.16381281173435   -3.85000148420711   -4.87778448694017
C          -6.57171745469242   -2.58889049425853   -5.18717681006044
C          -5.73970397338164   -1.75330273916096   -6.08971046800009
O          -4.57054725862234   -1.90461907056616   -6.36327228992258
C          -6.65660092785012   -0.70915328644491   -6.60164856625852
C          -7.89752297798892   -0.81565499892050   -5.94817818754979
C          -8.93955079418858    0.02941987861684   -6.29438105437478
C          -8.71119194020702    0.97039295446658   -7.28731354398202
C          -7.47171416387197    1.08205234049944   -7.91912178432293
C          -6.42676489778708    0.23798470228417   -7.58059097988412
F          -7.29234920249401    2.01027525604269   -8.86651592354329
F          -9.70630323000612    1.78668881706890   -7.64841873587595
C          -7.80812205465285   -1.87165390163928   -4.93727238065500
C          -8.62906319947737   -1.98139154207647   -3.84911185326451
C          -8.36843395798208   -2.79251833874469   -2.72245872590541
N          -8.18598933544637   -3.37723070529546   -1.75236470516712
C          -9.78682071458877   -1.19461205203946   -3.66137158769726
N         -10.74613387151520   -0.59515443131525   -3.47077897403884
H           5.96418012732174   -2.78314262181114   -3.65952211755183
H           8.27871543744051   -7.15915678910852   -4.25055883606591
H           3.23417976099221   -6.50968327970744   -0.48701305740150
H           0.78896683837865   -9.51575949431682   -0.48940985877535
H           2.20085299539427   -7.41216949095877   -2.22633425742790
H           1.96482721760889   -3.03289177821922   -4.90079158873479
H           1.25075280913547   -0.89105984923467   -5.84726386366394
H          -0.46864826894680   -0.45345071593548   -5.74720467170296
H           0.77336418735617   -2.22024448719455   -7.91849716278891
H           0.28053252162961   -0.53587454706617   -8.11871682123948
H          -0.93400762554810   -1.77976339755600   -7.80569222835993
H          -2.15381214517242   -2.45354833500223   -5.42669438231910
H          -4.21898732983576   -6.04560632536476   -2.47108486892921
H          -4.11463076044363   -9.09318204933446   -2.15405207666962
H          -5.22491747465368   -6.13957605183987   -4.20268540821768
H          -7.92779866853083   -4.73058381954320   -3.98356038960492
H          -5.14830188031911   -4.09156519883878   -5.17299150428713
H          -9.91443974369029   -0.02128978204757   -5.83752817358581
H          -5.47082376501011    0.32078925406265   -8.07261881443976
