82
 SCF done       -192.386803290441          0.000844201061
C          -4.33996224931467   -2.40191044943777   -1.05874376962370
C          -5.41356532951634   -1.70554969195100   -1.58857923959618
F          -6.61438246150383   -2.29426905483072   -1.62118237521649
C          -5.27268590540521   -0.41379965551533   -2.09790525457161
F          -6.33835355033306    0.20409506366436   -2.62423092194680
C          -4.04508753779528    0.22645750308906   -2.07577054623086
C          -2.97259864809054   -0.46660038809375   -1.54758270549194
C          -3.10303498908691   -1.77609733471318   -1.05044424503509
C          -1.80751375815311   -2.22759058058525   -0.55050856228402
C          -1.59826749915717   -3.30265527327965    0.26866948604559
C          -2.57058504726896   -4.29283282851568    0.52035858129040
N          -3.31429648259988   -5.15008086142018    0.68700561608240
C          -0.39441364247367   -3.51755238989208    0.97228034420395
N           0.54722089244797   -3.68513193990547    1.60473880628211
C          -0.82699401283003   -1.22539189870494   -0.92925492366924
C          -1.56739379858613   -0.01894775763464   -1.40901511105145
O          -1.10442535439667    1.06240504804638   -1.66694240347624
C           0.52380167986772   -1.24814546224536   -1.03153360283871
C           1.43696408189667   -2.35414758700342   -0.98168628261478
C           2.72445871643248   -2.21021099273917   -0.52801136502914
F           3.24888097091101   -1.08634798028543   -0.06079483515584
S           3.65135310100303   -3.65956233661561   -0.49982962302427
C           2.29415041110589   -4.49161799664808   -1.18065174669228
F           2.42441815107524   -5.77587008904970   -1.48739412730872
C           1.18956607938680   -3.71673835109475   -1.39607674403394
C          -0.04170222284313   -4.14507185883696   -2.00827592643983
C          -0.53666401522359   -5.39858950630853   -1.98184385475316
C          -1.82149131492158   -5.69789097086732   -2.53430763032730
O          -2.54331095051582   -4.68221804757892   -3.03828037220291
C          -3.73021183394615   -5.16575949402486   -3.46935297711187
C          -3.79298696376101   -6.54171787825586   -3.23202919568436
C          -2.55201995802509   -6.88410074667920   -2.62737118493459
C          -2.07923584563224   -8.23282572305384   -2.20508837075057
F          -0.83592300524667   -8.23258399132334   -1.71504538736012
F          -2.84830429647729   -8.78733333315034   -1.25062900646006
F          -2.06467648910548   -9.11321383520053   -3.22765519281699
O          -4.89143796896066   -7.21791598617657   -3.57812865113835
C          -5.05726610608232   -8.58785261786111   -3.25476682480438
C          -4.71425531938591   -4.33086566630731   -4.06825893616692
C          -4.54185014791430   -3.00764284665085   -4.25736941106502
C          -5.47691855400327   -2.08143522301638   -4.84203966984130
C          -5.04345699104798   -0.90192145914907   -5.38407193108858
F          -3.77535262456148   -0.48648212848281   -5.40791214311441
S          -6.27003123798228    0.08319979819304   -6.09615633496702
C          -7.42214852241067   -1.11341549095239   -5.63364238328951
F          -8.70366594095065   -0.87595545438500   -5.89254827375182
C          -6.91268277344049   -2.19976560862147   -4.96673390098304
C          -7.70296861424452   -3.24009379860263   -4.37120875008758
C          -8.98049733586546   -3.54101767688668   -4.69414353128431
C          -9.70280737334072   -4.55437213399780   -4.01301046940620
C         -10.92860083908130   -5.04388477841922   -4.34034052495375
C         -11.72684617437226   -5.79620157700010   -3.33508222591651
O         -11.32748267876209   -6.28844140062928   -2.30793222116181
C         -13.11617592187187   -5.75727164025012   -3.84699175351310
C         -13.13352708053289   -5.15374066151690   -5.11781503597866
C         -14.33453412079025   -4.97150923716206   -5.78471451788240
C         -15.49545775788166   -5.40401862957814   -5.16159985270493
C         -15.46928922729814   -6.01439622281277   -3.90599185934398
C         -14.27239209605364   -6.19724512468664   -3.23243065270135
F         -16.61327334093292   -6.42241949983832   -3.34652704345420
F         -16.66698941209699   -5.22762267448831   -5.77963541164767
C         -11.75928975061257   -4.84265190704783   -5.51105838039631
C         -11.32799482348041   -4.63141560171015   -6.79197572278500
C          -9.96909049096234   -4.63505701485825   -7.17764411698418
N          -8.88645079824718   -4.68776309882471   -7.55309040153169
C         -12.19430819462929   -4.50270226407788   -7.89940256628967
N         -12.85784366914667   -4.37471025841519   -8.82625701352596
H          -4.49630122559870   -3.40100539199212   -0.68761593998007
H          -3.93307427917897    1.22751703004691   -2.46082772879538
H           0.98266481446577   -0.28083563034425   -1.21760236745085
H          -0.60899402777842   -3.36663265453070   -2.50022545734366
H           0.00142899332349   -6.19666753584382   -1.50026646401683
H          -6.05486260625286   -8.83838738675444   -3.61090473061939
H          -5.00715464216420   -8.75376418653220   -2.17736092558143
H          -4.32683755629448   -9.21525235553132   -3.76783341128536
H          -5.60107534225456   -4.85311623361709   -4.38863717567501
H          -3.58293340008220   -2.57515465148668   -4.00006937174278
H          -7.21760958918531   -3.81178664333258   -3.59438287253233
H          -9.48686541124066   -3.00092040885929   -5.47819871500805
H          -9.27976185759936   -4.92902548953371   -3.08709431860561
H         -14.40381435626272   -4.50193013522060   -6.75250192256339
H         -14.25116055373686   -6.66604176987362   -2.26152343939067
