79
 SCF done       -186.350523326950          0.000740751497
C           4.66573830096951    0.30915345632446   -1.75406607899781
C           5.17041103943715    0.84986303851049   -0.58136075395240
F           6.19263373386837    1.70476692886874   -0.64754205268862
C           4.63521050739380    0.51946218386397    0.66710725958717
F           5.14894403313073    1.07111550247381    1.76952593926700
C           3.58101303736443   -0.37326941838115    0.77493442280721
C           3.08252845499685   -0.92194748065995   -0.39139666382726
C           3.61242898653355   -0.58546515451316   -1.65208750951929
C           2.85480241720039   -1.28737003889142   -2.67970221573664
C           2.73126836459730   -0.93450718178901   -3.99365793760541
C           3.49170415899836    0.07869434573566   -4.61542466099984
N           4.10165813646703    0.88840605896091   -5.15043088963658
C           1.72368220057137   -1.49722937766008   -4.80262122079849
N           0.85126184641487   -1.90525639025822   -5.42655898864269
C           2.02221948284932   -2.26704537464334   -2.00236070115417
C           1.99049499078358   -1.90869397903362   -0.55229299590364
O           1.26552123288140   -2.36748201998248    0.29325120445976
C           1.45597496609091   -3.40863276026963   -2.44863477207218
C           1.76514449615894   -4.13154127011957   -3.65564132134627
C           3.01865782577520   -4.23684677609831   -4.19663410509681
F           4.11220026652141   -3.61605821100380   -3.75472182808412
S           3.16297348963815   -5.37260891854103   -5.48484122004880
C           1.47107083704201   -5.69931818397714   -5.32783732898266
F           0.91893174219800   -6.57391425687953   -6.15633784938024
C           0.83290662926849   -4.98625236807446   -4.34894692823071
C          -0.58441610137175   -4.93406869672642   -4.11594057280320
C          -1.49128216642895   -5.79744693262959   -4.61310069710415
C          -2.89640802055768   -5.61088229165609   -4.50780501769709
S          -3.60428368108305   -4.15044308550393   -3.89337289857712
C          -5.21723162514766   -4.68741973052934   -4.27554992475047
C          -5.18580207187922   -5.94934891468558   -4.85086699722260
C          -3.88271578540880   -6.47462396788525   -4.95656636719864
S          -3.45801248145913   -8.10235043737251   -5.46257525241742
C          -4.77459431036256   -8.68114499128493   -6.47959598081584
O          -4.73352486088258   -9.80782240571006   -6.88485658321476
C          -5.96818526511998   -7.81239134435217   -6.81115734468022
O          -6.61590506284921   -7.97818184380409   -7.79618024686462
S          -6.61335437235854   -6.70015215056042   -5.55289981545886
C          -6.27777128234616   -3.76118508744274   -4.05214780616164
C          -7.59577700079020   -3.97493870764950   -4.21828352812498
C          -8.59796347647567   -2.93345478073290   -4.10747699572810
C          -9.80957068653750   -3.19218255009396   -3.53343290568733
F         -10.19318367232637   -4.36351063362685   -3.03857363245561
S         -10.87711156067534   -1.83530328055374   -3.39256613821888
C          -9.66603413898120   -0.88121692361863   -4.15999720203387
F          -9.91326683904603    0.40068491296181   -4.40610779307831
C          -8.51870100891355   -1.54807222956670   -4.52020984864018
C          -7.51497323908788   -0.87458507034900   -5.29844907274846
C          -6.52981483654193   -1.47401690087173   -6.00385682650745
C          -5.54513903776629   -0.76401727309471   -6.73140051801831
C          -4.44360128118026   -1.29839003740393   -7.32809819876419
C          -3.32010712923512   -0.40252322193451   -7.72372878232848
O          -3.36559763036221    0.79493311438504   -7.86379789583000
C          -2.14202925371743   -1.29097259452202   -7.83861141739353
C          -2.53822228125361   -2.62420971849603   -7.62775090151432
C          -1.58910685020594   -3.63481289434875   -7.61117202711722
C          -0.26740769581245   -3.28401749919454   -7.83271350618505
C           0.11357356329596   -1.96428774390491   -8.08107936619953
C          -0.82615105045576   -0.94695362341079   -8.07900116279057
F           1.39741624585718   -1.68518157060020   -8.32152512532759
F           0.67206319764944   -4.23543079381841   -7.80074602397088
C          -3.99424335908904   -2.66790433562061   -7.48693881744070
C          -4.76204584184215   -3.78501114576244   -7.67944233871097
C          -6.16759290441172   -3.80092461918110   -7.83114880482011
N          -7.29807892959239   -3.89199280753045   -8.00244165113654
C          -4.24098058129999   -5.08368573433136   -7.83529126416972
N          -3.90485465387506   -6.17944806814060   -7.91029457473859
H           5.10924159747412    0.58480733047376   -2.69739798014688
H           3.16953891680154   -0.62720019337262    1.73890041363173
H           0.77237177831081   -3.90596646008996   -1.76859463231905
H          -0.92551004217058   -4.08809613775849   -3.53359682831039
H          -1.18734203757890   -6.68039436154542   -5.15663595684909
H          -5.94250174785933   -2.77848967986817   -3.74391527827733
H          -7.97971413973064   -4.96776054919888   -4.39741477930115
H          -7.62128457534153    0.20242795498887   -5.34681076959893
H          -6.46106745137247   -2.54631923298003   -5.98739830221737
H          -5.60017043587323    0.31916470412085   -6.73488213916935
H          -1.83069045430297   -4.66873703252701   -7.42527997093424
H          -0.53391356841478    0.07585991547855   -8.25522275174366
