80
 SCF done       -176.410671006677          0.000398279940
C          -0.87748974923378   -2.10117358152572    4.59311430600814
C          -0.79737756927582   -2.56997648072746    5.89492452395581
F          -1.39978568065124   -1.88190609000175    6.86966529530677
C          -0.10792702213180   -3.74262038136721    6.21222624859629
F          -0.05536718260229   -4.15438746523116    7.48337832789319
C           0.51703797653319   -4.48310757723363    5.22290005820862
C           0.43965729369553   -4.01429792736956    3.92550977220135
C          -0.24630911875656   -2.83275006694664    3.59722553870287
C          -0.14593687134030   -2.60614206270536    2.15817486839852
C          -0.60134754766418   -1.50262977780286    1.49398620066505
C          -1.26479131952289   -0.41874826340727    2.11311334235914
N          -1.80100096784485    0.49557199331695    2.55093232031587
C          -0.47835644525457   -1.26891576163326    0.10767906384845
N          -0.44449356470258   -0.99787556231824   -1.00748980503412
C           0.59523433650366   -3.72290517724060    1.59013332591854
C           1.00599552355836   -4.62483683368894    2.70362339421039
O           1.59462909440758   -5.67678238263286    2.62997942540866
C           0.74951382701649   -4.01748448736804    0.27664731284431
C           1.60542309999722   -5.04623198907297   -0.24804859643056
C           2.87247454731417   -5.30725165320260    0.20349044640770
F           3.51632887815108   -4.64383446001450    1.15332412036293
S           3.73363708442784   -6.48244742330970   -0.71363595853612
C           2.33508603373531   -6.65657024494243   -1.72808140590561
F           2.37825997323212   -7.56031795906127   -2.70766458993833
C           1.28104789570958   -5.85109529392508   -1.40317216388018
C          -0.01006801825378   -5.81675735273654   -2.04242561973588
C          -0.26107559756855   -6.24793484589123   -3.29417932839382
C          -1.53540579442445   -6.18905580839418   -3.93135227926857
N          -1.63677594118767   -6.32781405818860   -5.29750404991660
C          -2.92961845429580   -6.13003345143500   -5.65820332990654
C          -3.78552816906954   -6.00423140704821   -6.75135961947308
C          -5.04623849464643   -5.71866414120530   -6.22473683163114
N          -4.96676968837719   -5.67135613376580   -4.84357862305035
C          -3.67987659124677   -5.91728964105076   -4.47673625647522
C          -2.80346365783620   -5.95559127355207   -3.39163508312346
C          -6.25602901768075   -5.37409921888222   -6.89213657800862
C          -6.41996313125677   -5.33148275293660   -8.22854551143490
C          -7.60818334029195   -4.83364367620599   -8.89198278057694
C          -8.11977680106837   -5.45549418693170   -9.99303975150571
F          -7.61523206859256   -6.54242385294680  -10.57353916631333
S          -9.58517683727281   -4.77589140322230  -10.62656281236139
C          -9.50495275909757   -3.59462398080335   -9.37887421678227
F         -10.43515957696499   -2.64522276234417   -9.32380300354940
C          -8.41855689860387   -3.68656277312492   -8.53960795161657
C          -8.17348202858741   -2.66252198541005   -7.56441047799048
C          -7.00184673158363   -2.44697590183705   -6.92126667700817
C          -6.84660121405253   -1.47445484296826   -5.90745554218711
C          -5.78756395220364   -1.35758510001049   -5.05635806287490
C          -5.96915210510185   -0.59578947841566   -3.78949124978189
O          -6.82266907855545    0.22302644277017   -3.55046641701809
C          -4.93998741776883   -1.13485150283309   -2.86913037493683
C          -4.11426830333119   -2.02846716911739   -3.57299021479592
C          -3.15107571624727   -2.76369897287190   -2.90195259621519
C          -3.06093222890558   -2.59760245833924   -1.53079009052504
C          -3.84799244336718   -1.67621922303432   -0.84324724394167
C          -4.80113563112542   -0.92455733160785   -1.51048292424968
F          -3.69417923984527   -1.54945233057120    0.48257137478225
F          -2.21738835768305   -3.37959156246136   -0.83641395645847
C          -4.51356299526109   -2.04611193931242   -4.98153812848481
C          -3.71910739032290   -2.48922419311335   -6.00366207195147
C          -4.00392236485423   -2.36636625296831   -7.38100134211396
N          -4.14790198928279   -2.28192948376987   -8.51626134777962
C          -2.43033161361595   -3.03209789520175   -5.81026278443144
N          -1.37375201380209   -3.47201114795865   -5.72439266867164
H          -1.42809411838244   -1.19549431522311    4.39854059790851
H           1.04742563698297   -5.39119048746379    5.46155628974773
H           0.19797891742201   -3.45899954698989   -0.46703100712716
H          -0.80503953995074   -5.38848677334747   -1.45217085501669
H           0.54785259350984   -6.61983699618725   -3.90733305790890
H          -0.84836502099203   -6.40363390392915   -5.91715571966716
H          -3.54251892059289   -6.08506974855406   -7.79081264109587
H          -5.75139840085458   -5.52438900847383   -4.23235322806398
H          -3.03484961386441   -5.85626737121050   -2.35030926524494
H          -7.07753480469467   -5.07612182887997   -6.25084748323518
H          -5.65194936993629   -5.72046394473726   -8.88019387607816
H          -9.00672262778516   -1.99374690005644   -7.38325824747874
H          -6.16141729298171   -3.07960142268882   -7.14400762699830
H          -7.69625302099933   -0.83841608117680   -5.68264540134884
H          -2.51088530417933   -3.48104668604915   -3.38837890689804
H          -5.42231798462330   -0.22115302574446   -0.97958935354491
