80
 SCF done       -167.601586187133          0.000570905375
C           0.97501485199134   -1.12597800141173    3.15184346875348
C           1.36107788764890    0.20258188117371    3.25295420008388
F           1.09734509129592    0.87003830590776    4.38180388581427
C           2.01818103180519    0.85534108323626    2.20961111678398
F           2.36601524260462    2.14058921876418    2.34830245939276
C           2.31734200825347    0.18713749622188    1.03286605075829
C           1.94305469238474   -1.13828746450868    0.93515529327708
C           1.27095952151311   -1.79952281064394    1.97828288091147
C           0.97032404236579   -3.16719594014898    1.55073269534517
C          -0.00560683451794   -3.96445350963307    2.09051790110482
C          -0.70936928039493   -3.65915560535093    3.27278972661497
N          -1.29014524542890   -3.46721955363998    4.24392169329681
C          -0.47835798778841   -5.13222068326754    1.45878205151192
N          -0.91866834849690   -6.05947915198268    0.94594766174431
C           1.67477286376604   -3.39243576543990    0.31143760737655
C           2.16223277765208   -2.08271165538247   -0.18488002703568
O           2.66892827042787   -1.85262188234402   -1.25921427327791
C           2.00679769274112   -4.52349893457168   -0.38009784575611
C           2.04281367123873   -5.86772648014189    0.03524668558124
N           2.22852520739229   -6.87925982600012   -0.87229455803258
C           2.31201194345549   -8.06934623560046   -0.23311905130229
C           2.22740576035712   -7.82667722658268    1.13958432801919
C           2.05208591617306   -6.46369450981863    1.30553821133303
C           2.45735383702098   -9.28322815198093   -0.90681518737154
C           2.56968277670354  -10.33826742977667   -1.48958233154938
C           2.70273100480162  -11.55400349609861   -2.17672111724423
C           3.92532224057364  -12.02160721790421   -2.64883916095194
C           4.04722664895584  -13.24148861094266   -3.35379761800880
N           5.32475033511697  -13.53156786631865   -3.73167916822799
C           6.14860827731326  -12.63202475636132   -3.36532852083303
S           5.48416303779521  -11.27036883581884   -2.49226454269945
C           2.93317299418321  -14.05871815878556   -3.64216506330970
C           1.70894760633279  -13.58580740406142   -3.15389018579759
C           1.58878853530686  -12.36877000647267   -2.43370959312682
N           0.32654376077361  -12.06595125752851   -2.02330752814150
C          -0.51147211295189  -12.95841406751364   -2.36833582779934
S           0.12984418018360  -14.31215522323535   -3.26452985638183
C           3.16300281023059  -15.25925349462612   -4.39477364672545
C           2.22418866047347  -16.07635315451244   -4.91521287280707
C           2.50400736062957  -17.24448429570179   -5.67924599710491
N           1.50826934537953  -17.96515330687061   -6.24194215384925
C           2.02645559952857  -19.02626422435812   -6.92752914037631
C           3.42464312422362  -18.97931339779301   -6.78357951655903
C           3.71860561009734  -17.87320773101484   -6.01159386281331
C           1.22833679750051  -19.91097953203458   -7.61382625843666
C           0.38156423632698  -20.59095113500472   -8.17809363795365
C          -0.37190680866267  -21.48466454007083   -8.88554994519879
C          -1.72242959686351  -21.57878456820062   -9.11336450032055
C          -2.16531766231777  -22.71568765523105   -9.95650006765150
O          -1.45757671792046  -23.56154673778953  -10.45669760434069
C          -3.63407266896072  -22.59547321660513  -10.05450674104179
C          -4.05126687468339  -21.46854924191997   -9.32711021729151
C          -5.40013363908544  -21.15297206929647   -9.27207782571408
C          -6.29282004262572  -21.97319809283638   -9.94633400462526
C          -5.86609598371731  -23.08892219460181  -10.66578766901015
C          -4.52024630395254  -23.41263337674917  -10.72658555936399
F          -6.76287678941099  -23.85213691050257  -11.30115340161367
F          -7.59741849603761  -21.68077093647776   -9.90071438072999
C          -2.87998955644673  -20.81301851013995   -8.72813390619113
C          -2.95865408877401  -19.67913823602106   -7.95667249606448
C          -1.91445890708166  -18.98262234476636   -7.33218423089254
N          -1.18397866870422  -18.30449138190829   -6.75909727723359
C          -4.16126779237558  -19.00075450445438   -7.65430711013096
N          -5.08339906667294  -18.38399664169302   -7.35898654949429
H           0.47040617603551   -1.58910816649909    3.98416156460982
H           2.82450605795593    0.69085745889135    0.22555543230356
H           2.38856193176095   -4.33214727101245   -1.37992453618778
H           2.22178138470548   -6.76239149122656   -1.87319898889403
H           2.28469123565455   -8.57138292226828    1.90758854138260
H           1.98629918075107   -5.94629879380167    2.24204329002796
H           7.20139273966911  -12.67544226099827   -3.56478036145363
H          -1.55892187873704  -12.91345565475367   -2.14364514144727
H           4.20889311680296  -15.47035500123850   -4.56438603783327
H           1.17249032445375  -15.85878295854732   -4.78953654347932
H           0.50893460165989  -17.78069565431442   -6.20396656669807
H           4.11585413223052  -19.68159880719487   -7.20591698246131
H           4.69396823138875  -17.54670338312813   -5.71139577750723
H           0.19871051321603  -22.27876577136692   -9.36723189108979
H          -5.79000376270612  -20.30581088092324   -8.73320154905658
H          -4.18201176313802  -24.27382727684472  -11.28033033947901
