104
 SCF done       -207.854463292542          0.000522332897
C           4.17850679279654   -1.91210666323064   -7.69153350426884
C           3.49637786549683   -0.86379774849410   -8.29241482831254
F           3.34018748720745   -0.86926911785124   -9.62171257599028
C           2.96871438993125    0.18898795829424   -7.54541106787028
F           2.32348225462747    1.18380468887337   -8.16804013590844
C           3.10112670396065    0.21584506761139   -6.16555064033172
C           3.76827573036620   -0.83276927201194   -5.56516606047045
C           4.31181530232490   -1.89168139993585   -6.31378876465984
C           4.99242582427420   -2.80799045357498   -5.39751813213726
C           5.98907015304850   -3.68425750392274   -5.74996031501730
C           6.31891727518704   -4.00937932434237   -7.07911210616554
N           6.60580923938838   -4.33078824276965   -8.14331283963133
C           6.85683379505058   -4.27097694335357   -4.80674508859382
N           7.61554896393403   -4.71487148332205   -4.06786344039374
C           4.64542499381132   -2.40910685983707   -4.05855891516757
C           4.01898717894502   -1.06891548513116   -4.12165194093942
O           3.72849303419167   -0.34824985600829   -3.19473950310936
C           4.69710367935742   -3.07388490397743   -2.86027472634832
C           4.77921094207624   -4.44456610322176   -2.59646257895148
S           4.52717362987503   -5.72125872863062   -3.77301990159502
C           4.62406921931674   -6.99388734897003   -2.58786471029266
C           4.86297085408739   -6.44916236777456   -1.31703317668565
C           4.92822960941094   -5.03280759633079   -1.34287215808813
S           5.23397732677861   -4.34848313022460    0.20893327125526
C           5.29156457355525   -5.95563137009479    0.89487768559459
C           5.55533258289733   -6.13572560427461    2.32409432023333
O           5.58396732012754   -7.21058641556072    2.87338540869680
O           5.76879656055653   -4.96024014518848    2.92254369363619
C           6.02845688331433   -4.98084311727276    4.32612264438017
C           4.73612282397649   -5.02697967908018    5.12800744928703
C           5.08474707732742   -6.95139325460304   -0.01377231786828
C           4.45424567294829   -8.32155144245487   -3.02131127579606
C           4.25784408677724   -9.40241152010662   -2.21151733777620
C           4.10525187414439  -10.73412972769537   -2.64693899243780
N           4.28803303627548  -11.15435368962210   -3.94984271338608
C           4.05105775812623  -12.48885599187804   -4.00982208386433
C           4.01951906902628  -13.58257854336229   -4.86245287724704
C           3.62403649318846  -14.67714596291787   -4.07551470208575
N           3.42743213659703  -14.25694568151302   -2.77508794744492
C           3.68811340632400  -12.92661225288487   -2.70376934191150
C           3.73330779825193  -11.83404081657671   -1.85241443022017
C           3.39764513403379  -16.02102180108619   -4.44623227658390
C           3.64572149351740  -16.54614104550184   -5.67631629040409
C           3.36388321044651  -17.87560104812124   -6.04478288988712
S           2.54202950361251  -19.01622454122527   -5.00687260130574
C           2.56781261514145  -20.28759052308925   -6.20533923043971
C           3.21520298782748  -19.83370246753896   -7.36264305852993
C           3.64593965125983  -18.48942645800991   -7.25803900407474
S           4.44127776984551  -17.94051196353470   -8.69559897114399
C           4.19673756195110  -19.50944161897782   -9.41953566307896
C           4.70011915431605  -19.77773503890492  -10.77055125501512
O           4.60037031020846  -20.84347380100067  -11.32598307746796
O           5.27430603759372  -18.68877950371959  -11.29114257430827
C           5.83871143404132  -18.81441475978113  -12.59717577493709
C           7.23959992580043  -19.40567187805470  -12.53968040133625
C           3.54157211867540  -20.39674513623452   -8.61560896885350
C           1.94538602873842  -21.52474921018061   -6.01776520939689
C           1.32815240931444  -21.92716610776072   -4.86383276629059
C           0.67209479467245  -23.15497947562424   -4.67985737887585
C           0.17530315020259  -24.04545806079405   -5.60002905585040
C          -0.06479465056496  -25.44392392379246   -5.16538531515798
O          -0.04262490796261  -25.86921555038090   -4.03300550015375
C          -0.29041304055430  -26.20868899438932   -6.41361864027294
C          -0.30841499241139  -25.32121540114554   -7.50302418670685
C          -0.46872226846758  -25.80596801755181   -8.79048368050199
C          -0.61569203659238  -27.17580674479669   -8.95523142915218
C          -0.61244024494403  -28.04863633060516   -7.86730690089817
C          -0.44723564707389  -27.57045207859876   -6.57684668359249
F          -0.76545028336084  -29.36275605354974   -8.07246239810595
F          -0.76036179664919  -27.66750813136673  -10.19086804653735
C          -0.15924079952638  -23.95203330808987   -6.99951987325376
C          -0.52954836765083  -22.82953525007337   -7.69877965834826
C          -0.61538088286780  -21.53777382522330   -7.14513274351090
N          -0.73112258575735  -20.46599080577131   -6.74986578325171
C          -0.94683950094253  -22.84031908158522   -9.04533573304533
N          -1.27775527941006  -22.78197553836828  -10.14295653641603
H           4.56965788931082   -2.70583702556325   -8.30712127213303
H           2.69459534518504    1.03064865018865   -5.58804394816206
H           4.54719980302994   -2.45203535778585   -1.98178094847714
H           6.58385122502106   -4.06195424896470    4.52326858235067
H           6.64985910044256   -5.85246572878414    4.55668412630981
H           4.09893919865778   -4.18655111807109    4.86330328834322
H           4.96522701272218   -4.97954509101952    6.18852224222414
H           4.20465018382963   -5.95345257715183    4.92389752894897
H           5.12036414229562   -7.98637934707731    0.26946575563471
H           4.44324226098228   -8.44932628019598   -4.09581496708572
H           4.17118082292133   -9.25501888548471   -1.14668362538965
H           4.59009248498880  -10.56655747191679   -4.70664747950747
H           4.23210472390334  -13.61014297008852   -5.91128080148868
H           3.14428968893615  -14.85693116741292   -2.01938566745938
H           3.52186079268720  -11.79425334937002   -0.80297079551518
H           2.99040207221925  -16.67374069864632   -3.68342734459664
H           4.08673720236731  -15.93535869326043   -6.45134616732234
H           5.85334871009182  -17.79849079803105  -12.99630868216414
H           5.18393528243913  -19.44779465345417  -13.20436071225312
H           7.87650585539398  -18.80420944985479  -11.89529246728487
H           7.66480261961299  -19.42863320096798  -13.53866535169726
H           7.19940814145363  -20.42064366073048  -12.15154653673386
H           3.32042244199754  -21.40058739748154   -8.92831583244835
H           1.99721817707856  -22.20432739745773   -6.85858450452626
H           1.40485347596572  -21.28026613423378   -3.99916590980235
H           0.58642925154196  -23.50125330233362   -3.65385230927287
H          -0.47457490730118  -25.17278098696669   -9.66261611832887
H          -0.44193240187869  -28.24373014994275   -5.73467386854253
