100
 SCF done       -208.271697982953          0.000613834782
C           5.32192340111004   -4.34321615231857    6.23471082464876
C           5.79072438694622   -5.21313350670943    7.20882614723915
F           6.11981132852408   -4.72355980670428    8.40816298744935
C           5.92608383727303   -6.58082389197376    6.96795924436503
F           6.38172867514025   -7.38306239739451    7.93679819926254
C           5.59275280918610   -7.11604682811341    5.73420312421242
C           5.12651168219540   -6.24922960041520    4.76579874581079
C           4.98578620847822   -4.87028706907377    4.99782438933261
C           4.47014203201886   -4.23667973968858    3.78193500954136
C           4.20910623020727   -2.89951006802257    3.64053259478304
C           4.40878145582689   -1.94359358574705    4.66039741866325
N           4.54703451576362   -1.11855707936624    5.44574397866476
C           3.70931296020688   -2.27491442663897    2.47708532216461
N           3.30569264938850   -1.68959690515356    1.57569738062079
C           4.29717543591264   -5.28148780262033    2.79249627656933
C           4.70645851305450   -6.55650870066415    3.38464756757842
O           4.70767108518172   -7.65548720086992    2.85833651135332
C           3.82711070179532   -5.11844876475614    1.51059006850652
C           3.62354747558253   -6.06640263549562    0.50446653959138
S           3.90717032126486   -7.79122202932957    0.56287856820565
C           3.34243384775007   -8.03104722499936   -1.06508747116721
C           2.96377240237616   -6.81501243926956   -1.65965417253232
C           3.12761704630144   -5.73213203851738   -0.76387098767486
S           2.68546794159814   -4.21720539310737   -1.45398221254910
C           2.30387378145611   -5.02786488558314   -2.95231036613235
C           1.83180573407000   -4.19769556273707   -4.07030642395326
O           1.66834714685038   -3.00557578248909   -3.99036792537676
O           1.62959590285414   -4.93091197279315   -5.16637613910157
C           1.15013158712673   -4.24242459620130   -6.32431248750301
C          -0.36093998758643   -4.07085913157613   -6.28067980479295
C           2.49385709271736   -6.37819529115164   -2.92136708173481
C           3.31262880751091   -9.34767039218568   -1.56531663574751
C           2.72040557357096   -9.73644419079734   -2.72795776975054
C           2.70053459187332  -11.06779462651911   -3.19319902988067
C           2.03299248981584  -11.58778780427650   -4.31165361800827
N           1.28070863930945  -10.75857784649954   -5.19034376166712
O           1.60591678016833   -9.59023117933234   -5.29513535048380
O           0.34930013974519  -11.25764086563235   -5.78949619533510
C           2.16092816765223  -12.98497207878262   -4.47404595950561
C           1.59672182097355  -13.78381478627316   -5.59364791094656
C           2.94516962795483  -13.54321676554623   -3.47050342683031
S           3.49755974300627  -12.34346219515554   -2.33082176595958
C           3.31214077544326  -14.89442869605660   -3.26504941315851
S           2.65810527987903  -16.22800697366770   -4.17459622576065
C           3.54402180981645  -17.43259041936063   -3.27305626414261
C           4.34573779105853  -16.80615719143224   -2.30942490888940
C           4.19624918130066  -15.39286231091622   -2.31658908244269
S           5.20103993844313  -14.61315835282074   -1.14090972904249
C           5.82456888936789  -16.16746981529954   -0.65897973208888
C           6.84337054526217  -16.25511755122600    0.39576422270539
O           7.23045879764604  -17.29378127624299    0.86855594628528
O           7.27604086530661  -15.03937077214369    0.73736658073962
C           8.27083649035272  -14.96495882262989    1.76086471926412
C           7.64055003503407  -14.97509571963893    3.14536546744590
C           5.29180661629844  -17.21865385610192   -1.34303221639871
C           3.35566787858689  -18.78271278006810   -3.61283806260630
C           3.90270586836749  -19.85938482482246   -2.97560345386764
C           3.65907499685982  -21.17703894944767   -3.40099590350049
C           4.21832861545187  -22.32925686431870   -2.92027063051657
C           3.55522184376981  -23.62855525494871   -3.19954741361422
O           2.67794058115319  -23.83950130936983   -4.00375958178103
C           4.16166816870357  -24.58417100162768   -2.24503672153415
C           5.18879071741307  -23.94235746385987   -1.53047508533433
C           5.87960525836570  -24.62702620151049   -0.54388532190775
C           5.52755252736658  -25.94650253173342   -0.30021973821910
C           4.51672568955682  -26.58085321482973   -1.02368132393347
C           3.81854705923925  -25.90072269494427   -2.00872981960424
F           4.21496660164057  -27.85700807433732   -0.75869278576239
F           6.17250942611683  -26.62258496278481    0.65586714828109
C           5.33497558889924  -22.57496535134429   -2.03671774701238
C           6.44698894137850  -21.79223123200657   -1.86422209365163
C           6.70237408265432  -20.59426734980947   -2.56371045047772
N           6.98412810926186  -19.63274721879566   -3.12417162372578
C           7.53715989050451  -22.14983121953273   -1.04116630108197
N           8.44469259717603  -22.38938517344119   -0.38157923076346
H           5.23658890764374   -3.29603321295613    6.47357375015452
H           5.69547540029286   -8.17223375028528    5.54310518183951
H           3.56069594828117   -4.11445817068245    1.20148899294015
H           1.45259072909988   -4.86888062413133   -7.16544669981034
H           1.64237267694718   -3.26628262853199   -6.38483993640081
H          -0.84522250971776   -5.03819486722485   -6.17141858035469
H          -0.69950985438675   -3.60547898803265   -7.20166003982654
H          -0.64017649873804   -3.43642950981980   -5.44290594568315
H           2.31133330678901   -6.99481429585035   -3.78158927701652
H           3.78102201609533  -10.09722389340185   -0.93822589635714
H           2.21678203119298   -9.00814985046389   -3.34262994827982
H           0.81448839133061  -14.44661813962051   -5.22347492662282
H           2.37164156877613  -14.40070888261271   -6.04745252385147
H           1.15581071094729  -13.14261182322861   -6.35055757730742
H           8.79870306741832  -14.02808150591400    1.57272235500258
H           8.95519076513820  -15.81186158938739    1.64774771621327
H           6.92447154084754  -14.16211569677480    3.23941980712562
H           8.41550341656704  -14.85521613719750    3.89660069366356
H           7.13013842829892  -15.92006638439805    3.31538079652972
H           5.61410973921525  -18.22461175048237   -1.15742679600374
H           2.72213746037005  -18.96420524964035   -4.47270262394674
H           4.51272643793567  -19.70498342723046   -2.10204554088800
H           2.88434433610971  -21.32419710715309   -4.14668620354789
H           6.66400662894485  -24.17964523429943    0.04442956270479
H           3.03473931462744  -26.38772660897190   -2.56660396621185
