100
 SCF done       -200.977009849239          0.000772923605
C          -3.13327272417312   -2.37645210257573   -5.29785868158540
C          -2.84788354546395   -1.65839633395367   -6.45076523619583
F          -3.82028935194701   -0.94340592935094   -7.02383324262828
C          -1.57590704121364   -1.66680833574316   -7.02525977430521
F          -1.34626197517375   -0.95685856489083   -8.13441034080213
C          -0.54872114890681   -2.40436932576599   -6.45808166738456
C          -0.83421215491886   -3.11861738441892   -5.31111783283534
C          -2.11109844453042   -3.11392188732947   -4.72330998674039
C          -2.07648880339453   -3.95662233086082   -3.52931185379316
C          -3.09243551742775   -4.10631278096274   -2.62374619718701
C          -4.36814140365270   -3.51964655566413   -2.76600387648955
N          -5.42280353267938   -3.07364446087304   -2.83663206998329
C          -2.98723611539763   -4.82944806810636   -1.41581462213169
N          -2.95606254723286   -5.37671633236683   -0.40720651784109
C          -0.74608020887393   -4.52637372972697   -3.43421668401709
C           0.06568629563424   -3.98097457217853   -4.52391268906418
O           1.23348803764317   -4.22970766277803   -4.78347895332052
C          -0.40246418199246   -5.58509359390161   -2.62736801138238
C           0.84711570342182   -6.17758911939594   -2.37062226391985
S           0.78696104315654   -7.90150047935153   -2.04521573512524
C           2.50580646931408   -7.97958103125560   -1.82181025130102
C           3.07588183238953   -6.71151641847789   -1.90615326213793
C           2.15329924387406   -5.70408398153379   -2.22244671238585
C           2.54146208219545   -4.25824449956408   -2.18943093379518
C           4.05609183395782   -4.06955092098626   -2.26056116342442
C           4.72250792125135   -4.36422904303389   -3.61207009671967
O           5.92179384637199   -4.35651379828004   -3.70288065273828
O           3.97060306515972   -4.65452481021617   -4.66107612103711
C           4.75260571066819   -4.97684024820151   -1.22110175138492
O           4.34319176526449   -4.71198267381010    0.09400944341688
C           4.51905256696078   -6.44027859590759   -1.61851116434039
C           3.12857555222264   -9.23644417963881   -1.60878190252409
N           2.38795102313012  -10.33734793864562   -1.22467608172493
C           3.21572292285151  -11.40922386317047   -1.14342067780251
C           3.27388490229936  -12.76653227970002   -0.84997096691955
C           4.60761916389995  -13.14855546321026   -1.05083445559614
N           5.34242760344530  -12.05031290932454   -1.45137707029743
C           4.51772094996369  -10.97439541346582   -1.50675825200964
C           4.46657142111395   -9.61383995584191   -1.78882992166258
C           5.22173457621284  -14.42169442129640   -0.93130323679348
C           4.60923765715457  -15.51748759619032   -0.41562818505301
C           5.13420844868741  -16.83097804775115   -0.30517894093681
S           4.27244623509367  -17.93972098328126    0.72660234414267
C           5.38541365632022  -19.23053309105099    0.36254819593175
C           6.37834114819538  -18.79408970601015   -0.50462427247528
C           6.22009727504106  -17.45984329026333   -0.90807509118529
C           7.11794298158446  -16.82300736082030   -1.92395888058938
C           8.03523971010453  -17.82058963052022   -2.64355619100219
C           7.43237971854709  -18.49963294997370   -3.87688962662582
O           8.12657164526984  -18.75968041481025   -4.82090601929263
O           6.13922187889825  -18.79679329339844   -3.89102256242824
C           8.58083570456726  -18.89288638278018   -1.67257748545372
O           9.39259491386577  -18.32033991997414   -0.67898140085261
C           7.42979932990369  -19.69828052517038   -1.06008890608591
C           5.21715517624149  -20.53454265709434    0.88241357825499
C           4.03732639872920  -21.15973619534903    1.15450971257225
C           3.98993883501809  -22.31788874341641    2.08315290617600
O           4.92811471678904  -22.93639721032628    2.52478159843286
C           2.55088419476880  -22.50419963760734    2.38368112304485
C           1.78775805945748  -21.62017281996269    1.59894723314699
C           0.40829683795844  -21.59289920814667    1.72325601557878
C          -0.17809959380929  -22.45590935098975    2.63727701186061
C           0.58447499808325  -23.33693828509893    3.40608037586907
C           1.96501681508439  -23.37018922405135    3.28546893425752
F          -0.02413780921259  -24.15519413065546    4.27048278198506
F          -1.50599268017662  -22.43719393765971    2.78572171885049
C           2.68760623483532  -20.87006070581098    0.72428535808837
C           2.32216875594708  -20.23777293648940   -0.43824860838720
C           3.25163199468403  -19.76537240118879   -1.38385562345192
N           3.99783941780789  -19.39646765182331   -2.17630246928864
C           0.98547519241891  -20.04528601112968   -0.84379039847947
N          -0.08403853725629  -19.84028177532125   -1.20443059088771
H          -4.13253033908050   -2.34056602807035   -4.89593448561245
H           0.43428233820474   -2.41495199129074   -6.90154813939187
H          -1.23065406454601   -6.12314698531078   -2.17798566439372
H           2.18199738526992   -3.82774776058556   -1.24656324571568
H           2.05148657928583   -3.69140006078717   -2.97832087158760
H           4.29706589414135   -3.02927798151094   -2.01712028321735
H           3.00378214553339   -4.57219187296388   -4.55577964987633
H           5.82545924174310   -4.76457081101083   -1.23686607062548
H           3.43383707562433   -5.01125963521371    0.20864416186207
H           4.86205604782376   -7.08916070689119   -0.80940914408307
H           5.12061303501499   -6.65546084460060   -2.50519998920532
H           1.40056362930772  -10.31844901151612   -1.03265699543640
H           2.47263207699758  -13.41063152120452   -0.55171684597200
H           6.32676252661926  -12.06209602014441   -1.65692832958068
H           5.26349495160282   -8.98531043879252   -2.12485461381092
H           6.24744116582793  -14.47376201263813   -1.26276822794246
H           3.61234428208316  -15.39843795012936   -0.01431767853218
H           7.75508017227637  -16.08513121820138   -1.42418898561071
H           6.51294285812917  -16.28323399689542   -2.65890499496395
H           8.90635370330576  -17.27723543716150   -3.02459500738155
H           5.62174195610161  -18.67356762763302   -3.07429220548388
H           9.24534461051105  -19.56163771593847   -2.22878673274035
H           8.83902605281801  -17.80268278116916   -0.08251974907253
H           7.82817048137063  -20.34362343169359   -0.27310650738782
H           6.98940568376644  -20.34984089050342   -1.82029901750182
H           6.11660656036542  -21.08402946019669    1.14298413584941
H          -0.21957991802288  -20.92734122198359    1.15342186888971
H           2.55456772282441  -24.05137651542687    3.87815110000652
