91
 SCF done       -208.141387679380          0.000724979562
C           5.57237595647889   -8.63084050532079   11.73204014684077
C           4.80628959641775   -7.69000451409079   12.40316598128462
F           4.70358310937375   -7.76973174200668   13.73096899259085
C           4.13415984757452   -6.66840608076687   11.72476500300985
F           3.40577627781961   -5.79313827964680   12.41755509530477
C           4.21840857206836   -6.55785633439940   10.34603357738563
C           4.98819193319665   -7.49311333403120    9.67813913786191
C           5.66036058362331   -8.52959967780458   10.35199067625672
C           6.35824819505721   -9.35453986997634    9.37255922059026
C           7.26359807400481  -10.33998454536061    9.64030903150718
C           7.62669545029019  -10.74358029032760   10.94513789401340
N           7.95346562891578  -11.10937101149741   11.98134104379652
C           7.99231300570423  -11.04173341733827    8.65252604305375
N           8.63035535159386  -11.62741623478914    7.90081243401067
C           5.98018029181048   -8.87141039621428    8.04825873215683
C           5.25153241027584   -7.59023705594881    8.23071818463610
O           4.93152087973291   -6.78549209391702    7.38346221459501
C           6.06050866157333   -9.59887939320146    6.90332934629503
C           5.65850165114769   -9.22517372028083    5.58852271984639
C           5.62075824779922   -8.00416743578514    4.96957916396335
C           5.10468135410893   -8.06029820206510    3.65387205956380
C           4.89354624963003   -7.02958021334493    2.72029284085490
C           4.34974439177275   -7.40715868957499    1.48640542808355
C           4.08235675254167   -8.78247507743845    1.24584672173401
N           4.29458293865093   -9.75441365108997    2.10337390137092
C           4.78117016101581   -9.39390877048006    3.27215122515240
S           5.12189712614295  -10.52871450445964    4.52714053146648
S           3.41914852339948   -9.07588641196321   -0.33409667913088
C           3.45695041894499   -7.36189025444846   -0.65555879709566
C           3.95535385397197   -6.61857726484334    0.36236072340829
F           4.02776853968068   -5.28219946550130    0.33105451460767
F           3.00969009442807   -6.90538246016252   -1.81561260814325
C           5.27319611617990   -5.65015790478472    2.99390558226967
S           6.46200232231753   -4.89160205169066    1.98783943434582
C           6.37583795182139   -3.42577655922378    2.91219547690856
C           5.45238278618539   -3.53563136151104    3.93527568733410
C           4.83229770141737   -4.80431624020091    3.98227115029053
C           3.76771320435555   -5.12247347135456    4.98383184354431
C           3.99368441985984   -4.25910709739203    6.22994096849250
C           3.02152623781028   -4.56654889692206    7.25102446346965
N           2.26438396916737   -4.81537712280925    8.06929034077081
C           3.94820351745583   -2.77476136846917    5.82412559968944
C           4.04053366515575   -1.92736144827728    6.98946610757105
N           4.19144742479393   -1.24324639537844    7.89208419263986
C           5.14404711773760   -2.44497653019003    4.91358747430082
C           7.20249513699606   -2.32476039910995    2.52531431315371
C           7.49697408231929   -1.17336548197522    3.20663018553942
C           8.33622488955788   -0.29197365399105    2.48671268611892
C           8.82704395474299    0.98165138653390    2.83523096520563
C           9.70135139389842    1.58076691224302    1.91138466864663
C           9.97999434432127    0.91136290574285    0.69246562334732
N           9.50483897818071   -0.26528742300641    0.35146373532539
C           8.71277109744520   -0.83806964332412    1.22850098104752
S           7.97722659671419   -2.37808217808277    0.94944019070389
S          11.02189024848691    1.82713535943039   -0.35674313081829
C          11.06381617426023    3.10774654330311    0.82112584518140
C          10.33849716673808    2.85376313466812    1.94058111026834
F          10.23371564180362    3.70986609401817    2.96486675852149
F          11.76859671569751    4.20239016684454    0.57557439932136
C           8.49312663382771    1.64916614834920    4.06998254506962
C           7.30078416284934    1.75097261294015    4.70040444597926
C           7.26731881676441    2.23301899159345    6.11689638078585
O           8.18918623087414    2.69688921129594    6.73848501133025
C           5.89199541832496    1.96367972078122    6.58484774681395
C           5.12728664631356    1.43683979558716    5.52717802651320
C           3.78556785854402    1.14634647178242    5.72691351264551
C           3.24450299185308    1.37687471711563    6.98176411036074
C           4.01333002389424    1.89147465648887    8.02879074479052
C           5.35218391515765    2.19188729385155    7.83582305984328
F           3.44938716167086    2.11327167841730    9.21411614991334
F           1.95477932687524    1.10363166905550    7.18216177121610
C           5.94938387479747    1.37771112019167    4.32110541085999
C           5.48659578553338    1.14782868226529    3.05208522819861
C           6.20169180957318    1.45619486112518    1.87627463680220
N           6.70048165810160    1.76525435449693    0.89045656119292
C           4.21228225936132    0.61046473722067    2.77497839141842
N           3.22271203291090    0.08609863627691    2.52435489441117
H           6.06223615473021   -9.40652470328070   12.29774792351961
H           3.68465645307289   -5.77982241161812    9.82078819747900
H           6.38310591932039  -10.63030221089989    6.98606279794987
H           5.98362994725619   -7.10324395300241    5.42552787876480
H           3.78698896498420   -6.17626679894730    5.26035276871995
H           2.78223314229566   -4.90543838200455    4.55805778531579
H           4.97897091834952   -4.49129849327064    6.65249084679743
H           3.00359752357743   -2.56759235620883    5.30806133322512
H           6.02478035174098   -2.28150512931102    5.54654938565971
H           4.94091123194347   -1.51578276496437    4.37507575385973
H           7.18110159971765   -0.97276167403039    4.21179314125579
H           9.31871991799408    2.12940097605288    4.58782886128082
H           3.14598376506739    0.75533028677971    4.95246174249660
H           5.94744051471184    2.59868588544388    8.63779180247342
