106
 SCF done       -223.827038422596          0.000920333113
C           5.15515209092463   -1.42939268130410    4.28460425961235
C           6.04021292245920   -1.85480123398285    5.26497215705457
F           6.43233906126420   -0.98584228637414    6.20254228411718
C           6.52840833606033   -3.16132333943140    5.29638466054567
F           7.38103318164763   -3.52710614020066    6.26038379418073
C           6.13801366620766   -4.08356687903251    4.33853216999488
C           5.25654652109867   -3.65924477780999    3.36439216328079
C           4.75979261445408   -2.34518315039677    3.32261195130191
C           3.85582327655771   -2.21777814777555    2.17696343588533
C           3.20441050856898   -1.06881994711771    1.81074157550528
C           3.31385248082163    0.15665092461215    2.50274914370622
N           3.35732588718277    1.18148040325772    3.01765048556682
C           2.34354426391545   -0.92721610022190    0.70147231067875
N           1.63707397248708   -0.72352922146631   -0.18081102223846
C           3.80262775590714   -3.50979410822413    1.52570936512741
C           4.68484921630204   -4.43202332885731    2.24315984680846
O           4.91184176837436   -5.59957996884234    1.98131103463106
C           3.04362748533449   -3.83628781016369    0.42633692398828
C           2.92699483081566   -5.05161115039398   -0.25184435211354
S           3.73294684478545   -6.56945770519086    0.07672753343566
C           2.94223745125891   -7.38295036662366   -1.24044951135580
C           2.07503162219658   -6.51657937092773   -1.92823971003296
C           2.08581925392964   -5.22151751392377   -1.35954473117076
S           1.04594160345411   -4.11720587188850   -2.17723931935193
C           0.59674715737030   -5.38449922057929   -3.28926237967143
C          -0.35106119225391   -5.10278999377319   -4.37301161139433
O          -0.68915408993913   -5.91402199159643   -5.19985027816298
O          -0.78386281868118   -3.84200890760143   -4.30626138676804
C          -1.69349142197128   -3.40582488572063   -5.31688045719988
C          -0.95165654367859   -2.94053852334412   -6.56124890029533
C           1.20552076876593   -6.58019295747508   -3.04278611503798
C           3.26288750216215   -8.74419793108554   -1.43668759524234
C           2.73567045475655   -9.55996530101766   -2.38688818323638
C           3.07615093853167  -10.91651869901927   -2.62347692618793
O           2.75272590261775  -11.40686928036018   -3.83295270646326
C           3.26202610836650  -12.65067128623983   -3.96168654682523
C           3.92787994891262  -13.00327450011156   -2.77155562355593
C           3.76644719104665  -11.90137050867438   -1.89807465334055
C           4.05823207860496  -11.82433233879297   -0.44017992922124
F           3.17318519561593  -11.05845666142704    0.21580332047933
F           4.00307799187098  -13.01777609872270    0.16993620695597
F           5.27862228263534  -11.31750688137856   -0.15820222425890
O           4.56341965978407  -14.17251877467216   -2.66406683990157
C           5.56819040836163  -14.37837418543830   -1.68257398780800
C           3.05630124726633  -13.35996019656718   -5.16523823485100
C           3.62046193541934  -14.56201100929717   -5.45521778225243
C           3.41430593816563  -15.27905571576972   -6.65007377062808
S           2.23959067379481  -14.85571681180421   -7.86616587852975
C           2.66624815847910  -16.19843879267949   -8.90292092671070
C           3.68751725260738  -16.95418322698375   -8.30900544150418
C           4.08284077633746  -16.42800861966305   -7.05256462566814
S           5.32683346559761  -17.36119283773901   -6.29805494330146
C           5.29400012299718  -18.46664733114055   -7.64718275102658
C           6.22264525258404  -19.60285728098889   -7.60246583911609
O           6.98408442418399  -19.80254568026796   -6.68786151618103
O           6.11307595104416  -20.37000069195822   -8.69053923801408
C           6.98328676647770  -21.50204914173792   -8.76704590319651
C           8.35469055865051  -21.11320283879703   -9.29991878226449
C           4.39226052766394  -18.13999350687799   -8.61787158786861
C           1.95609700070342  -16.39839530429080  -10.09599260048867
C           2.33905424646620  -17.21314621345243  -11.12551555858476
C           1.58176696921575  -17.44147011723330  -12.29005019106335
C           0.22993227244368  -17.33863440009889  -12.49055879116561
C          -0.27753187570982  -17.22235347811292  -13.88080993691434
O           0.35234474735603  -17.37769517876306  -14.90138815012926
C          -1.69981970257580  -16.83261273487869  -13.74520016421214
C          -2.05382396684957  -16.83287489079241  -12.38484353964440
C          -3.33478798226179  -16.47057266019602  -12.00157793177927
C          -4.23664203326560  -16.12157362493165  -12.99627531474565
C          -3.88162303317141  -16.13754257825209  -14.34543868978757
C          -2.60045635806972  -16.49434946862137  -14.73553062852837
F          -4.78694257285120  -15.80089535518904  -15.27173710130430
F          -5.47574814784545  -15.75811481406598  -12.64796291679003
C          -0.90165644350343  -17.27871455837305  -11.59609304076535
C          -0.98372052453972  -17.78238623453018  -10.32212040290648
C           0.06891462121951  -18.44188325404629   -9.65776071595631
N           0.87273842432025  -19.02025370242972   -9.07707030735939
C          -2.16052395766414  -17.77547758378870   -9.54577717362409
N          -3.08148113410989  -17.77530206918295   -8.86077571621953
H           4.80824374940617   -0.40951449858124    4.30713982897477
H           6.51184868164069   -5.09478696212474    4.35863410892807
H           2.42373915171514   -3.05566299307658    0.00070040659853
H          -2.25096206651892   -2.58626911950746   -4.85964586043703
H          -2.36999711989095   -4.23098017618411   -5.56247951671240
H          -0.24075920074960   -2.15916886440336   -6.30382301728392
H          -1.66273871424057   -2.55028651617692   -7.28329570754434
H          -0.41613782036608   -3.77395889443659   -7.00977701408180
H           1.01322789371255   -7.43996500983363   -3.65607856099418
H           4.01202842758470   -9.11928743705327   -0.75513432162331
H           2.03887535533940   -9.16495735272894   -3.10973818478830
H           6.26387289296379  -15.09181476791464   -2.12408191030908
H           5.14355746287418  -14.80899819998130   -0.77431591476941
H           6.09891602715277  -13.45504741681743   -1.44507697760498
H           2.41668574073661  -12.87260589728837   -5.88914565011546
H           4.29240535666620  -15.02387654822649   -4.74689566307540
H           6.47923414586184  -22.19777601777918   -9.44058918798993
H           7.07571371778509  -21.94520390138650   -7.77026128898274
H           8.25996497748347  -20.63047730535418  -10.26985349628319
H           8.96858703420497  -22.00296908264872   -9.40439962394098
H           8.84210420240467  -20.42918603300433   -8.60924833563855
H           4.23928390463895  -18.75149196778725   -9.48597783423274
H           1.05620063498478  -15.80626458405524  -10.21214787650942
H           3.32888695488446  -17.64370078362520  -11.10414784667910
H           2.14091833397755  -17.69093891591163  -13.18723606043873
H          -3.65560431916463  -16.44017845665739  -10.97313364725618
H          -2.32340314575050  -16.50637169375377  -15.77753438107829
