81
 SCF done       -174.802366248459          0.000535028522
C           6.30652940379462   -0.87283641275219   -1.74796990397484
C           6.06806386388360   -0.20416729258424   -0.39431560485603
C           6.76452269126290   -0.92739141951538    0.71682664602141
C           6.67683776147077   -2.31902202171949    0.89223340743540
C           7.46783358505411   -2.81759791709130    1.89984318849393
C           7.57885860588510   -4.17995989317041    2.30284434548443
C           8.40985976106481   -4.60871642520191    3.27264862038105
C           8.57482701804804   -5.96817835964916    3.71409820874549
C           7.80422363084437   -7.03100711179936    3.33202159173729
F           6.76368349403042   -7.01124740838984    2.49926679430212
S           8.24355916895113   -8.55470805959612    4.02912370267477
C           9.51525382024960   -7.75247086562134    4.86602905251536
F          10.30900561300805   -8.48836950636040    5.63831294949497
C           9.60620546326523   -6.40032672428795    4.64014014943439
C          10.57153419892883   -5.52211627152641    5.23050379607886
C          11.54071212401551   -5.87320136094924    6.10825417413840
C          12.44258425315967   -4.92426667960744    6.65060469537905
C          13.33259100712588   -5.13420435897971    7.65891398504646
C          14.47594689319053   -4.20474919907122    7.85487340705996
O          14.60860728030660   -3.10185301826021    7.38111389343737
C          15.43461518703156   -4.95329167045847    8.70019233702484
C          16.71296261920503   -4.59134536169098    9.07817279317351
C          17.43481318991398   -5.48803776374798    9.84916435534698
F          18.67808419906025   -5.17970118352091   10.23441991036173
C          16.88073288654071   -6.71331089031767   10.22449227423009
F          17.60741390631233   -7.56438577454016   10.95524944954606
C          15.59367072790540   -7.07375563477383    9.85474604690363
C          14.86484350139383   -6.18049295227177    9.08578105084474
C          13.49634657725517   -6.24757277923520    8.57182050414684
C          12.50976534060544   -7.06796888989878    9.04693016523719
C          12.73477733497041   -8.10411558280252    9.97915267380179
N          12.87065493579327   -8.96718233907216   10.72245128818099
C          11.13604120990591   -6.90640117148028    8.75823186743557
N          10.00516642916153   -6.78601789583764    8.60811874332124
S           8.36764955619602   -1.53534950778653    2.65292617977211
C           7.62623467906029   -0.34347397193674    1.62401275849008
C           8.02347078556057    1.02557941122022    1.81385490944158
C           7.26751176313848    2.13226119843530    1.73841323545318
C           5.82588233088178    2.21310515015808    1.59671442284845
C           4.91042160199389    1.36777091630367    2.14574623651922
F           5.15720077256338    0.28537482404916    2.87451697541393
S           3.25108298694839    1.80429071386461    1.86814572487020
C           3.80519430389735    3.19441219470596    1.02142352777497
F           2.91462642065494    3.99978516858338    0.44584298563818
C           5.16848898905750    3.31712962652039    0.93756137784263
C           5.88759985188957    4.31205854692548    0.19902428801376
C           5.55159583826992    5.57740418168332   -0.14399319189465
C           6.32869099226890    6.24213105041425   -1.23553069188554
O           7.37363591538889    5.86519621468952   -1.70554915440625
C           5.51483412487850    7.40943817733230   -1.63094401634351
C           5.72300138034336    8.28969695270034   -2.67585759175753
C           4.79153238258791    9.29761747195801   -2.86276125307171
F           4.95171209988616   10.17057274150613   -3.86180963387175
C           3.68244840056485    9.40967290206741   -2.02039762115452
F           2.79443317241358   10.38317332548695   -2.23553382444196
C           3.47784172428807    8.53317345072172   -0.96565242470248
C           4.40846950833562    7.52478558284358   -0.76986808380430
C           4.49086721985285    6.48531877716477    0.25501595128038
C           3.84934750098762    6.51466154793480    1.46092162153058
C           4.13773709127365    5.62443129967289    2.51519986523846
N           4.36337418873765    4.92219560419174    3.39372620593492
C           2.88407452657735    7.48106344443991    1.82014363046358
N           2.09016433785366    8.23604078820268    2.15789890902161
H           5.87788213119320   -1.87055258581907   -1.77689011550844
H           7.37269050980768   -0.94951514084333   -1.94839779863271
H           5.84861262385224   -0.28197857078633   -2.53759709112460
H           4.99260869640915   -0.17657934400260   -0.19074310260635
H           6.42800325045412    0.82454713001187   -0.44001400720405
H           6.04295903892948   -2.95195175024959    0.29744667966458
H           6.94753768058116   -4.86638186693080    1.75859782461752
H           9.02062507380876   -3.86922721700621    3.77066079580604
H          10.48479287128401   -4.47722852295570    4.96767723169920
H          11.66444111155407   -6.90165260380007    6.40587780214477
H          12.49296359069105   -3.94958938799592    6.17700467483689
H          17.14031171415251   -3.64542726909097    8.78584303352558
H          15.20936551655857   -8.03185559188059   10.16487960507395
H           9.06924558658608    1.15530664477265    2.06493136515565
H           7.75516450491656    3.09250100192775    1.83541225985868
H           6.83248809818015    3.97073001030798   -0.21494145155003
H           6.57827393003792    8.20006723718960   -3.32653807837388
H           2.60481194270149    8.65518023944141   -0.34544150438916
