98
 SCF done       -186.010291340013          0.000947891560
C          -0.79035640838373   -3.36135864936097   -4.80402919424843
C          -0.77761412383229   -2.18049944582733   -5.53329978674757
F          -1.36282803830050   -2.15744585851965   -6.73756059107334
C          -0.16986302144313   -1.02542398853448   -5.04489588450104
F          -0.18821304612929    0.09520975208113   -5.77920968516785
C           0.45799733670236   -1.02487988758701   -3.80853030400570
C           0.45639678179478   -2.20216218373177   -3.08901581031932
C          -0.16665954522118   -3.36720810191707   -3.56805785123259
C          -0.03285919341678   -4.42203361317660   -2.55786800985646
C          -0.82678345157820   -5.54373795604932   -2.50159052787694
C          -1.72056208819611   -5.93207124518632   -3.51818589644455
N          -2.44224429503454   -6.32444721892165   -4.32108290673180
C          -0.91073538827977   -6.40273822999769   -1.39139562283788
N          -1.04600631093816   -7.13052290443642   -0.51240561010426
C           0.86834166949576   -3.93689456476251   -1.55023205944656
C           1.07747349084188   -2.48914851444684   -1.77458858118834
O           1.66504385640344   -1.71511255093149   -1.05109007240239
C           1.57206756998025   -4.54118809965458   -0.53585261083344
C           1.88543080717890   -5.88645166685834   -0.31355764172692
N           2.48054052700508   -6.29003268146158    0.85784293032909
C           2.72205645858559   -7.62380783341740    0.85585495694141
C           3.21333763443933   -8.26499747859000    2.02432039121242
C           3.22162058155247   -9.59978460913123    2.24775710730060
C           3.69132107539683  -10.22005439710123    3.43641994670404
N           3.62740658293710  -11.57935238923207    3.60195267636608
C           4.13389291878063  -11.92213957684548    4.80568177255206
C           4.54222768970696  -10.77415022993852    5.44610087429477
C           4.26799089717262   -9.70288142261339    4.59268898404677
C           2.32974601018192   -8.10977752294369   -0.41687694419823
C           1.80531411558449   -7.02897223871626   -1.12101398915170
C           2.42346427996937   -9.44127482465401   -0.96446203046430
N           1.40650462815773   -9.91368408526839   -1.76331897335609
C           1.75080065494767  -11.15203001602289   -2.20969528816651
C           1.32533769225487  -12.22969274172540   -2.98683273204639
C           2.36060549344323  -13.16513934102205   -2.95133358802106
N           3.38859769055467  -12.67553584196775   -2.16590079003315
C           3.03603023286612  -11.44711071679891   -1.70506999767737
C           3.45539553956206  -10.36956940745945   -0.91536209486644
C           2.47367783665932  -14.43767030470235   -3.57529837586005
C           1.51679511016551  -15.02679804162453   -4.32579524246350
C           1.65233571183618  -16.29820408791137   -4.95637107733343
N           0.62221733303808  -16.84387608154308   -5.68391635142228
C           0.95088867707072  -18.05399972176960   -6.19461447248933
C           0.04353583252013  -18.72744991716753   -7.05416081091878
C           0.36919531730544  -19.70325908301144   -7.93632642169961
C          -0.55134389595045  -20.44688035960287   -8.72103562281774
N          -0.12502652495934  -21.43208011460703   -9.57501664563907
C          -1.18936796295207  -22.03456128460160  -10.14906719519697
C          -2.33374704300891  -21.43896641063285   -9.67119877553248
C          -1.94112134155821  -20.44337009577620   -8.77387845590201
C           2.27594984515630  -18.33647852568281   -5.75084850016647
C           2.69544063159599  -17.19480894963258   -5.01619472569993
C           3.12683597512605  -19.45451738891553   -5.87220725956122
C           2.94865019357968  -20.78695623906448   -6.15410790893653
C           4.14041965539384  -21.57668012971096   -6.54307132537149
O           5.30191658533946  -21.24343344616955   -6.46703561187710
C           3.60678105903955  -22.84318023615368   -7.10534649258083
C           2.20782178297844  -22.85142239009156   -6.97013140264517
C           1.46873281010498  -23.91218102316434   -7.46769347107936
C           2.15492056782019  -24.94609025681255   -8.08917652813513
C           3.54362580968146  -24.93868459634921   -8.20432188484607
C           4.28908289389087  -23.87905866926257   -7.70876803089688
F           4.16498741272870  -25.96067637885948   -8.80990997503806
F           1.45743368882905  -25.97074618281229   -8.59863315572751
C           1.79755599316024  -21.63698289115634   -6.26396520362800
C           0.55886337263582  -21.42916041062738   -5.70211734392417
C           0.30386053105245  -20.41664464821688   -4.76100243052043
N           0.07347010533872  -19.63618009779945   -3.95055463785738
C          -0.55534647593169  -22.26084851580950   -5.91855246238815
N          -1.50343798262558  -22.88236281580020   -6.10044965727496
H          -1.27257745701312   -4.22839804050496   -5.22500547992924
H           0.92915079585182   -0.13229516889724   -3.42920842748332
H           2.02609931518474   -3.83492093266206    0.15455127933254
H           2.62525812123697   -5.68799865524010    1.65283380089885
H           3.55695722878205   -7.60267655591945    2.80843747942409
H           2.82919987623235  -10.25946477037953    1.48657916076339
H           3.24472538229995  -12.21670259162270    2.92280821757090
H           4.17405869662661  -12.94276319693057    5.13158621549497
H           4.98763323328985  -10.71718059750902    6.41914565408658
H           4.46719258906317   -8.66933377335216    4.79195842381494
H           1.47625454460265   -7.05317817356864   -2.14116990872680
H           0.52750357614798   -9.44200902365854   -1.89194723251700
H           0.39974887791829  -12.33174307981550   -3.51535309217230
H           4.25779444463126  -13.15460459365440   -2.00606348180431
H           4.38882782264952  -10.24247117213286   -0.40390780437132
H           3.41001593044561  -14.95798237883282   -3.42297205605291
H           0.57178023746519  -14.52259627855229   -4.47114727210620
H          -0.26994969808684  -16.39746588430316   -5.82516397239884
H          -0.98939999176856  -18.41306884890623   -6.98227598740532
H           1.41486307930577  -19.94121434510365   -8.08361571385542
H           0.83984073683874  -21.66654650371765   -9.74148459370155
H          -1.07127433848632  -22.83871701036087  -10.84805213744620
H          -3.33911608066468  -21.69874636777765   -9.93473875159745
H          -2.59154248806532  -19.79890083054171   -8.21822477444021
H           3.65115166711389  -17.09576348895947   -4.54270328030717
H           4.17579606362208  -19.20825967517715   -5.71790751255140
H           0.39416922737468  -23.96189365210671   -7.40030992027931
H           5.36344779750612  -23.87044283163689   -7.79908594168869
