106
 SCF done       -208.374961337067          0.000491922905
C          -0.45109925247377  -10.02621099247239    5.70720606618645
C          -0.44575752002669   -9.95691998145620    7.09282775892122
F          -1.04338441246804  -10.92764469703075    7.79300516578813
C           0.16950308128672   -8.90383517971208    7.77005308996540
F           0.14376647864157   -8.87374201381090    9.10819546274540
C           0.80999515647681   -7.89043809430863    7.07388962150700
C           0.81614845509568   -7.96425946890963    5.69532977926541
C           0.18799244440444   -9.01732967088810    5.00673335087409
C           0.32745408999516   -8.78307350793776    3.56925213227404
C          -0.49707379814416   -9.29720006551579    2.60041509739869
C          -1.45107670208591  -10.30676240062047    2.83337514544400
N          -2.22671941991600  -11.14184652350193    2.96931438006425
C          -0.54430444111701   -8.78610184245371    1.28743685024292
N          -0.64425378433993   -8.35701432904305    0.22722712193788
C           1.25916809119913   -7.69520610235583    3.40258828948989
C           1.44754025859764   -7.04213544115237    4.71958635007751
O           2.03121211455371   -6.00875133845959    4.94966947405434
C           1.99106159588693   -7.28046127278122    2.32270873736182
C           2.32774648367818   -7.98531125092174    1.15904334381171
S           2.25041120341549   -9.72960098774574    0.99075415237517
C           2.91107081330279   -9.71807198016174   -0.61815448909601
C           3.20292682159166   -8.40245394843499   -1.01028605200392
C           2.89253840156619   -7.45818823075766    0.00280493272911
S           3.28913766070191   -5.84038761788273   -0.44348176581308
C           3.90038593784978   -6.42364923730049   -1.97402694290128
C           4.52247174323503   -5.50444446622385   -2.93166741932075
O           4.89154313827028   -5.83429428373966   -4.03298435078426
O           4.65369994636283   -4.28167902221514   -2.41066012897488
C           5.32148519199630   -3.30064667911864   -3.20673967466265
C           4.38458137028187   -2.65462975421956   -4.21555522393205
C           3.78869119876018   -7.77336680948458   -2.13402303328936
C           3.07772269733006  -10.94617323617453   -1.28688741520212
C           3.35190552222825  -11.07345183483040   -2.61525892864870
C           3.55378505878071  -12.29424710464782   -3.28905873658548
S           3.67942949912233  -13.79460023491311   -2.41785567747615
C           3.99615226326686  -14.64219173957114   -3.87348433219660
C           4.01704240196942  -13.85282601176323   -4.98196046796181
C           4.24530147312228  -14.41692307987636   -6.34403981155791
C           3.75272105435950  -12.48273403913747   -4.67012984660559
C           3.61328678065289  -11.39411171494312   -5.58125457101406
C           4.01874133510400  -11.28741965296064   -6.87295762027914
C           3.75821789829108  -10.10664642351192   -7.60906806925446
C           4.14724244287524   -9.89476617207707   -8.89449606595272
C           3.87147547445056   -8.71048919440241   -9.61284791396826
S           4.41665628424457   -8.52276304458107  -11.25446229664593
C           3.72261909914218   -6.92854480861073  -11.42966189970019
C           3.09600619928049   -6.55363250660854  -10.23035137460436
C           3.18372653813809   -7.56211148680787   -9.23386625771693
S           2.38663684747246   -7.10461504093516   -7.76694000679641
C           1.95111653719394   -5.57860084791632   -8.48059081985259
C           1.14746331653484   -4.62894021836499   -7.70327105918711
O           0.84519184414361   -3.52451524019168   -8.08057736510052
O           0.77546382937410   -5.17577549340720   -6.54067535405719
C          -0.03482533987204   -4.38541966413148   -5.67045276065469
C           0.81877289639641   -3.51706806558671   -4.75907634271789
C           2.39181184439646   -5.42027437431291   -9.76182460212854
C           3.88925697867305   -6.27421343204316  -12.65767821570597
C           3.34749404655084   -5.07366013979191  -13.02880100760994
C           3.52505188577674   -4.46718427675248  -14.28494447139090
C           4.46502339777104   -4.67510604770866  -15.26349475994607
C           4.14409483451747   -4.22533819452314  -16.64225827482496
O           3.21988769449640   -3.52398478218013  -16.98334688432109
C           5.16490453948610   -4.85877521530907  -17.50833445383884
C           6.09958500897933   -5.53316968585261  -16.70460770855101
C           7.13710831184872   -6.23885381769454  -17.29113499961332
C           7.21664545477892   -6.24602770203353  -18.67623088629379
C           6.29355153965543   -5.56131617017180  -19.46658001369117
C           5.25051817372628   -4.85683510279857  -18.88620517823166
F           6.41362274222493   -5.58997064135109  -20.79955397946836
F           8.20311272138990   -6.93259614434421  -19.26418978856283
C           5.75808669798612   -5.31301294790656  -15.29566801052647
C           6.63822448210832   -5.47120967546186  -14.25384326857295
C           6.39053737588927   -5.03773670593695  -12.93703789721040
N           6.25080951976756   -4.68864677701875  -11.85239714003894
C           7.92619584096311   -6.02814515727017  -14.38589323470835
N           8.97450554360096   -6.49391852470761  -14.42812627989296
H          -0.93717642400564  -10.85849752104102    5.22450911599886
H           1.28455267572617   -7.07604878881791    7.59760255082705
H           2.44821478151147   -6.29919240313065    2.41550540324622
H           6.15945096372173   -3.78044762337497   -3.72314683217585
H           5.69445022679541   -2.56789110503981   -2.48864168967289
H           4.04170087574645   -3.39638327049850   -4.93267297025493
H           4.91479227509149   -1.87161375500775   -4.74962239692769
H           3.52596590547294   -2.22105491401852   -3.70850870598757
H           4.14980566320283   -8.25796083457297   -3.02161838666089
H           2.94122619589140  -11.83822433184824   -0.68916585656896
H           3.40922321063100  -10.17798977418014   -3.21261672012019
H           4.14739875335551  -15.70350232108362   -3.83345889406088
H           4.21274484936018  -15.50302143268711   -6.30454601178413
H           5.22269959840233  -14.12090503900458   -6.72350473577074
H           3.48037121210408  -14.06740136960577   -7.03486656281900
H           3.11038390732769  -10.52482130836924   -5.17696261081929
H           4.56863411169369  -12.07082587959432   -7.36789669382712
H           3.20941873291767   -9.32801198058187   -7.09746042866137
H           4.70222267813425  -10.65771441240278   -9.42348460689983
H          -0.61911346748096   -5.10610256500866   -5.09468379837805
H          -0.69898023859479   -3.76213346805446   -6.27813841829186
H           1.51527072109491   -4.13608191380661   -4.19818204368662
H           0.17865734938599   -2.98258824755363   -4.06324358616546
H           1.37749983554198   -2.79544364802684   -5.35057050528887
H           2.20761452513802   -4.51721030385944  -10.31180100679507
H           4.46613569183400   -6.82517294955862  -13.39046093257356
H           2.66080981016114   -4.58220796486863  -12.35772978507887
H           2.75581140543807   -3.75740582934429  -14.57700769572219
H           7.87277242886092   -6.78548425414383  -16.72411309726515
H           4.53431881295498   -4.32850122825914  -19.49495327040603
