78
 SCF done       -157.844268787841          0.000586478671
C          -3.90317570328419   -4.21345137046115   -0.69842331634999
C          -4.97103444480215   -5.00313038248704   -1.10142487627203
F          -6.21057499606083   -4.50634635817630   -1.01520189839444
C          -4.78539321989713   -6.29540365535536   -1.59084457175519
F          -5.84497595059971   -7.02192881928284   -1.96916832954896
C          -3.51332883534643   -6.83554550164988   -1.68770529936260
C          -2.45295545496983   -6.04878966840682   -1.28435155147213
C          -2.62756531473474   -4.74589881667687   -0.79307602313104
C          -1.31115454714490   -4.19563308745030   -0.46162646763207
C          -1.10280398303405   -2.92810987704652    0.02023953067551
C          -2.13558471031194   -1.99755221443076    0.26410472577228
N          -2.92175271904969   -1.19125522711594    0.48672258975544
C           0.14010543445183   -2.34267038200928    0.34052767663554
N           1.09940079513325   -1.77896078996699    0.62732105497335
C          -0.32097010101767   -5.21644423985983   -0.74751911867274
C          -1.01756222167060   -6.39010686739093   -1.28013670527810
O          -0.56242578505542   -7.46219801948417   -1.65968446504212
C           1.03442128360116   -5.05761989547540   -0.52186220628715
C           2.10345112691091   -5.93004746223135   -0.73288178655770
N           2.03701149139487   -7.19555172155857   -1.24592373856322
C           3.27004486494300   -7.73801271183405   -1.29438757798909
C           4.18816753801647   -6.79069829551008   -0.79466053854152
C           3.46598926539655   -5.67247004115379   -0.44911113411009
C           3.48859735853155   -9.02282691255867   -1.76744138230609
C           3.63522450442384  -10.15594160079203   -2.18157035630590
C           3.70342601651228  -11.45398700934610   -2.65975844744168
N           4.86586568626725  -12.19754739812722   -2.68986019151132
C           4.56670300444328  -13.42358804796513   -3.19617756177341
C           5.09705932665995  -14.66759102772924   -3.52646591701720
C           4.02988286646850  -15.42705011776123   -4.02244078854535
N           2.87882512408927  -14.66643510669102   -3.99860109454731
C           3.18007301171530  -13.44289736793566   -3.49535002211172
C           2.63672403450837  -12.20718724800052   -3.15899739682417
C           4.07322444931363  -16.76877743015796   -4.48056736367688
C           3.01539268834178  -17.46425005655090   -4.96619933210710
C           3.05483938552909  -18.80967255964652   -5.41736175144197
N           1.94989093432630  -19.41383690978154   -5.90966293534085
C           2.23570807223371  -20.70139357617403   -6.26987576044428
C           3.59646087672317  -20.92267942149943   -5.98899102656918
C           4.10229819960466  -19.75099288693471   -5.46536080701371
C           1.28317725242755  -21.52893436111140   -6.81079293157995
C           0.31607559978884  -22.11306320918271   -7.28481876181231
C          -0.60391237400634  -22.95894822473383   -7.83139198417546
C          -1.90854878045696  -22.77454182013389   -8.22751154307641
C          -2.57752455729276  -23.94596708697582   -8.83926352551580
O          -2.10904720657848  -25.05439393552874   -8.98105235764400
C          -3.91954809834565  -23.47714258213830   -9.24350153119756
C          -4.05806467061270  -22.12593226877305   -8.88593581055290
C          -5.23852791237698  -21.46045663743084   -9.17724613631587
C          -6.24696561592592  -22.16559248842380   -9.81849454294157
C          -6.09782835032440  -23.50669945506555  -10.16736067663816
C          -4.92144667808252  -24.18079303139256   -9.87975898803207
F          -7.09715830253565  -24.14769749157239  -10.78660332409017
F          -7.39102021321222  -21.53395789594034  -10.10865934125478
C          -2.82458173773546  -21.66720470221129   -8.23031354161444
C          -2.66372316976895  -20.39793852365490   -7.72441165695247
C          -1.55307010019718  -19.86463719365437   -7.05875498849888
N          -0.74266017123392  -19.27396118504665   -6.49498265837320
C          -3.64424292998791  -19.38311843920682   -7.78732193581491
N          -4.37594411651382  -18.49805908172932   -7.79647271069721
H          -4.10486680243823   -3.22216954988931   -0.32813596582114
H          -3.36279963982371   -7.83463519336032   -2.06428396830108
H           1.34245970750580   -4.10808669820361   -0.10623647719202
H           1.15197496507952   -7.62361002728491   -1.52979965287218
H           5.24656706832689   -6.93903682040350   -0.71116739169310
H           3.84546983859875   -4.75867752099627   -0.03586888755805
H           5.76375561436959  -11.86919994523021   -2.37915264490484
H           6.10903233329757  -15.00665785318815   -3.43234931781785
H           1.97212812930988  -14.98037203000875   -4.29512573829338
H           1.62528580814927  -11.86607166721541   -3.24643099206145
H           5.04025787628813  -17.24615335113332   -4.42427629148661
H           2.04234704686803  -16.99474012083714   -5.03644913525325
H           1.01490756356992  -19.02510114457044   -6.00600804146294
H           4.12440995882114  -21.83951335696057   -6.16273907331376
H           5.11090591558734  -19.58028341109807   -5.14582286649466
H          -0.24407730247197  -23.97238019396546   -8.00800886909352
H          -5.41211772704691  -20.42562305129112   -8.93421463789324
H          -4.79781757360790  -25.21796836889900  -10.14746494050825
