81
 SCF done       -178.326860580222          0.000455608824
C           7.62430397384313   -9.96587322373748   -8.01129261150508
C           8.01864252257189  -10.00146004452525   -9.34023400138631
F           9.21985464145897  -10.49944468289196   -9.64777794530924
C           7.19327809241203   -9.52830751697341  -10.36242251588505
F           7.61128468207993   -9.59026371120880  -11.63183798420194
C           5.94874071318361   -8.99209706168115  -10.07629593711296
C           5.55901408302771   -8.94556586957368   -8.75131736371434
C           6.37879002315214   -9.43348776405608   -7.71846226371140
C           5.67754241323563   -9.27780600993239   -6.44521530906606
C           5.95687891487958   -9.97030125809756   -5.30102062148102
C           7.06767776485412  -10.82810461484501   -5.14871450068310
N           7.95447868723652  -11.53434234070522   -4.97524231777779
C           5.11867991364246   -9.96448541900440   -4.16746572823978
N           4.44660634591500   -9.99494082015305   -3.23827053898785
C           4.50824895137964   -8.45343011337058   -6.69861924979467
C           4.31235339135350   -8.39621424187736   -8.17550268291921
O           3.35607684876373   -7.96664069553924   -8.77773832898632
C           3.69979596391762   -7.71339252701857   -5.90220700122617
C           3.83869067371677   -7.29520095708778   -4.53927152049750
C           5.00605801812189   -7.08997104204890   -3.84807993890894
F           6.23668977997692   -7.31243028300826   -4.30815396145215
S           4.81765488590647   -6.36483583678069   -2.29881249527700
C           3.09811170415454   -6.34310748507538   -2.56784671763527
F           2.31021972012392   -5.87536413855735   -1.60302045765045
C           2.70538973036586   -6.84514082295301   -3.76524809989275
C           1.34235508997662   -6.96437657066763   -4.25719867469506
C           0.40236108001732   -6.04065288382774   -4.08716938870987
C          -0.97004155909209   -6.04627853209694   -4.67156469982008
S          -1.17633079907333   -4.49369400622052   -5.67880051724955
C          -1.76101540493235   -5.36438483591507   -7.16070802430016
C          -1.21491037829961   -6.79590750909683   -7.08408064291163
C          -1.35159510789715   -7.19728105308902   -5.59655038274153
C           0.24371255085419   -6.73802356130248   -7.59628904549292
O           1.15168474824778   -6.39506661110287   -6.87138346785862
N           0.42197505854134   -7.05426939599449   -8.88173782347452
N          -2.02554811804126   -7.63920430425276   -7.94466668391740
C          -1.75166272186805   -8.96588349397165   -8.20141372579072
C          -0.70529059429321   -9.72011671933909   -7.75670629550985
F           0.30658142005991   -9.34819404705966   -6.96117362530306
S          -0.69302439667113  -11.36885876647247   -8.31509203323454
C          -2.15534851159545  -11.05264574245495   -9.14393780772687
F          -2.73047865784047  -12.01511244697902   -9.85727589643275
C          -2.61380975059411   -9.75554142990085   -9.05920655384774
C          -3.72695695069809   -9.33559531700818   -9.85226070713936
C          -4.09753587233272   -8.06622021343515  -10.15398168606819
C          -5.11930168381542   -7.80153207955354  -11.09427341574291
C          -5.44322154345069   -6.61448661109198  -11.68226396280946
C          -6.72541542498502   -6.52779050450745  -12.43523386900618
O          -7.44213667942451   -7.44830361788394  -12.74593670812891
C          -6.94277504468314   -5.08521406887683  -12.67237250724915
C          -5.83943255499407   -4.36159045726625  -12.18621716311177
C          -5.83507304149013   -2.97718621449240  -12.26381689558712
C          -6.93212135005184   -2.35272608478213  -12.83823848242356
C          -8.01575107723131   -3.08116884263221  -13.33327869480027
C          -8.03209102520404   -4.46425881124946  -13.25102914113525
F          -9.04742986202411   -2.43735561395274  -13.88610008363533
F          -6.94915753922537   -1.01967939184158  -12.91510338847575
C          -4.83431351443024   -5.30119404826800  -11.68025161647076
C          -3.52451800651190   -4.96921988229378  -11.44518713899936
C          -2.46608810627058   -5.85419790408229  -11.17070408799700
N          -1.53006300344744   -6.48706957590097  -10.95995830415967
C          -3.01882627020631   -3.65050369467659  -11.52071518898735
N          -2.54049771514615   -2.60842809622378  -11.54283763171595
H           8.29651191006652  -10.33662388353403   -7.25474139957202
H           5.31341982876616   -8.62244345322167  -10.86530911215064
H           2.83214612686483   -7.28137091309708   -6.39832155826763
H           1.17216748697657   -7.85220062501751   -4.84527121157954
H           0.62046589464301   -5.14747470788892   -3.51757687105307
H          -1.69283938302533   -5.95458879665788   -3.85439714968278
H          -1.40820686000776   -4.82629800301115   -8.03926553418900
H          -2.85490819194653   -5.36549881975914   -7.15204600812909
H          -0.75912014635243   -8.07714871542986   -5.36439588858081
H          -2.40426865070640   -7.44917527020491   -5.43343190261414
H          -0.32773243079372   -7.13677810437875   -9.55378504406591
H           1.37684156308587   -7.04145393464128   -9.21270017707256
H          -3.01662440768128   -7.46579032561895   -7.83836347643509
H          -4.25100940052996  -10.14578015586211  -10.34552713730076
H          -3.57779209141065   -7.22712343439348   -9.72615701985778
H          -5.76087084144317   -8.63141121251410  -11.37432009669888
H          -5.02852320283267   -2.36636192190661  -11.89298821694453
H          -8.86837732453977   -5.03106630276918  -13.62813613789022
