74
 SCF done       -157.130500307883          0.000943982880
C          -0.28703027317357   -0.38993258609899    2.02692991639228
C          -0.19694911207671    0.21830576573163    3.26982250300961
F          -0.64051894478236    1.47222676502775    3.40955458198238
C           0.34395679958816   -0.44269956080033    4.37345724008975
F           0.41080450872369    0.18398720647080    5.55361822591094
C           0.81228904059772   -1.74109268519599    4.25668569662009
C           0.72208180852585   -2.34549065623303    3.01848863722773
C           0.17984026771174   -1.68991927656761    1.90240414408746
C           0.22806472189498   -2.59662854442620    0.75565341326685
C          -0.26264849246978   -2.30183567905198   -0.49041914583599
C          -0.86452419769211   -1.07165490311710   -0.83490390460983
N          -1.36311254354373   -0.09997535207353   -1.18655722641192
C          -0.26401732646387   -3.15740347107593   -1.61211656406779
N          -0.31026158539005   -3.79070865485822   -2.56990249837905
C           0.84588956699275   -3.83569328045448    1.19826723851835
C           1.15118997080111   -3.71107789138026    2.63932745770222
O           1.65530973983914   -4.52093547798062    3.38600020387422
C           1.10730113515459   -4.89458377266457    0.36846470835124
C           1.64064797147390   -6.17260386420191    0.61122482101169
N           1.79144386947234   -7.03184748962783   -0.45315625347316
C           2.27179199338145   -8.22234355305018   -0.02646876127853
C           2.44943534842041   -8.14013599968636    1.36013546593542
C           2.06236879130776   -6.87295723536795    1.75426426964088
C           2.50917091222663   -9.29860468108658   -0.87756577082121
C           2.70525979385300  -10.24528313042749   -1.60672455138169
C           2.90669570399732  -11.35610554210306   -2.44321010421650
C           3.07637823772248  -11.18788608588844   -3.81759121058411
C           3.24307970239237  -12.29183354638759   -4.63411789060984
N           3.28173013548825  -12.04565891871233   -6.05815796525702
O           3.86787414337517  -11.05342726246717   -6.42970103040508
O           2.68964838673887  -12.81982681774504   -6.77598864114471
C           3.27946454115958  -13.59517477366613   -4.11580166849787
C           3.09751990408801  -13.74210281008236   -2.73438131947753
C           2.91134999526097  -12.65328286802136   -1.91390364189957
C           3.55045744867156  -14.76346048100781   -4.92803325835855
N           2.99373461842372  -15.95951584051942   -4.64605668765484
C           3.46107523289760  -16.90434724967106   -5.51513345156370
C           4.38210736450363  -16.27826590449581   -6.36611727014947
C           4.43043774768062  -14.94321029826051   -6.00189596115443
C           3.01712605163190  -18.20739725606707   -5.46586719597835
C           2.51743551974304  -19.30882744617591   -5.28693849548077
C           2.10493041374688  -20.61333580752002   -5.25734965565986
C           1.11745293895355  -21.24552374358947   -4.54817953073891
C           0.91512188482002  -22.68711079698410   -4.84077429789505
O           1.57995313784372  -23.37078934357683   -5.58550035695867
C          -0.26185463836227  -23.09514131511869   -4.04735817987625
C          -0.72622847713297  -21.99130802120888   -3.31260237738358
C          -1.84296034826109  -22.13082962105980   -2.50246722949066
C          -2.46067519695733  -23.37148302966301   -2.44684755042703
C          -1.98666015495500  -24.46178784327708   -3.17669830902585
C          -0.87358137519645  -24.33128942883935   -3.99157824536859
F          -2.61288246302318  -25.64013997353420   -3.09039722104491
F          -3.53987031403982  -23.51981242279892   -1.67136752540123
C           0.13774672680829  -20.83227008365174   -3.57432368496579
C          -0.00166436649592  -19.62235676079468   -2.94092879292526
C           0.80380433499722  -18.48146800262025   -3.06263265613149
N           1.36342106259892  -17.47781529177098   -3.02296226214280
C          -1.01265785659585  -19.32726020640139   -1.99710635255530
N          -1.79648822004919  -18.99879774213863   -1.22606296270283
H          -0.71212538368280    0.16693256602273    1.20847383224444
H           1.23170140637394   -2.25777268286240    5.10517021246636
H           0.85602853570780   -4.74179121041827   -0.67451811506016
H           1.55906834058762   -6.81099184921566   -1.40923536492837
H           2.82168507379207   -8.92736213003611    1.98479098309182
H           2.07476004435241   -6.47776730094841    2.74873978825709
H           3.05882734411051  -10.20211327496091   -4.25812988006814
H           3.12674744679504  -14.73146927341852   -2.30401856627129
H           2.77083028535578  -12.78939580951470   -0.85250521464832
H           2.30048435778857  -16.17778375781644   -3.93418705700527
H           4.93179351754609  -16.75490292158072   -7.15273139692543
H           5.05049088227826  -14.18954562506041   -6.44562919513888
H           2.63996007851514  -21.27612586775009   -5.93717566429422
H          -2.25655703916262  -21.32604287039660   -1.91814962411572
H          -0.50263047730939  -25.16855744799216   -4.56090560158658
