74
 SCF done       -155.885913323804          0.000985284756
C          -1.36190455188150   -1.11344209795292    1.05741009143649
C          -0.95198539513666    0.07219216349896    1.64837212928389
F          -1.86557883143848    1.01345870277825    1.91083134977525
C           0.38436809045623    0.30689518733347    1.97399149237701
F           0.73391698134821    1.46602049685176    2.54440367542386
C           1.35137408304383   -0.64936833978261    1.71123673412295
C           0.94201131535694   -1.82819081470899    1.12040448144320
C          -0.39922358697343   -2.07557329593394    0.79102811598178
C          -0.49639150684928   -3.40468885540601    0.18703648628849
C          -1.66959693497286   -3.99012354928480   -0.21517798931970
C          -2.93750624816108   -3.37729669993706   -0.11133816620936
N          -3.99897542008019   -2.94350577101230   -0.06268006537310
C          -1.81337594335118   -5.27635259394434   -0.77620933487294
N          -2.01970317026242   -6.31068689705047   -1.23229530852517
C           0.84501007807961   -3.96021847736533    0.12337082535912
C           1.77591990889630   -2.99000856706353    0.73563984862256
O           2.97195718184518   -3.07994728894256    0.90880777820884
C           1.14128941041621   -5.17160459527082   -0.44731012777821
C           2.35335417689334   -5.86294350153901   -0.61165447514457
N           2.33524189413404   -7.07806740108286   -1.26141557866795
C           3.58500079003643   -7.58534564156973   -1.33214085373666
C           4.45218853531564   -6.68302940451496   -0.70796426854304
C           3.69121431461418   -5.61842476479103   -0.26025076643229
C           3.88435103300693   -8.80792429023028   -1.93829932741935
C           4.20687873795488   -9.84340622770975   -2.46884959745052
C           4.53141560505284  -11.09848273234402   -3.05817417189583
S           3.14071845980008  -11.90101336032163   -4.03605262461000
C           3.53205347627482  -13.00905996837275   -2.75668992877967
C           4.50670908311843  -12.30524021278812   -2.14439244206334
C           5.35565407979517  -12.59384545315052   -1.00657603246443
O           5.35163171035773  -13.61782107533357   -0.36760979418352
O           6.19313273585480  -11.55528328686432   -0.75452221129816
C           7.18960899687841  -11.78553888717540    0.22922830951643
C           8.34072804654388  -12.53887235809225   -0.35713210573037
N           8.40840189117517  -12.78591776983742   -1.67177003264539
C           9.54006207961198  -13.51018746895421   -1.95099025050575
C          10.21557213196100  -13.70854894886243   -0.74035980013228
C           9.45865159977105  -13.10146153639219    0.25357265084758
C           9.82037213287874  -13.92511439084465   -3.23090197987277
C           9.89468965853396  -14.22200148788125   -4.41652696428218
C          10.19645975502345  -14.67265977640649   -5.66994041812852
C           9.53608496519954  -14.57477572177461   -6.86983286652976
C          10.18984607692344  -15.21878384269479   -8.03528792313994
O          11.24664980921498  -15.80888993700935   -8.03429482231933
C           9.28522096961304  -14.98829498242835   -9.18083465430210
C           8.16647172393946  -14.26119486979057   -8.74173295951932
C           7.17408576680598  -13.91946483881353   -9.64741526255487
C           7.32887904199391  -14.31553105606492  -10.96792120759018
C           8.44377826431506  -15.03826755910527  -11.39197495142666
C           9.44087660160453  -15.38418286424301  -10.49360801412917
F           8.55155978944204  -15.39877648608924  -12.67539401835491
F           6.38039737532759  -13.99134837761376  -11.85334419931338
C           8.29720787794982  -13.98662572990614   -7.30423503595039
C           7.36324038687876  -13.28530001478314   -6.58077293320538
C           7.38942404085631  -12.92845901119000   -5.22748704574364
N           7.23083559863159  -12.52520222534530   -4.16115482320640
C           6.16003999137928  -12.76300090407334   -7.10931979761514
N           5.15937157530731  -12.30266086281524   -7.43290225732687
H          -2.40633290535364   -1.24142974989054    0.82623936656016
H           2.38601885942595   -0.47523950021601    1.96018628989959
H           0.29731665873870   -5.70834677493777   -0.86437950803938
H           1.50994729916157   -7.52140649171341   -1.63467700756052
H           5.51083978599152   -6.81246666261495   -0.60461729281138
H           4.04232898955605   -4.75302090014365    0.26221127201765
H           5.42297514199991  -11.04102149899414   -3.68567329880370
H           3.08847996402984  -13.96787526300253   -2.57252827011718
H           6.76537747580913  -12.35187340789510    1.06825866021079
H           7.50108436496688  -10.79671184513198    0.57926802355111
H           7.74632490038211  -12.50824388982605   -2.39225296367926
H          11.13839308796709  -14.23987374286718   -0.61938217953862
H           9.68199335280005  -13.06884342070059    1.30096154827926
H          11.13552429639120  -15.22139393053091   -5.74168842158504
H           6.29158210997457  -13.36293490159630   -9.37933478454993
H          10.30598037787571  -15.94221749805935  -10.81439801429824
