95
 SCF done       -184.953970619705          0.000600519360
C          -3.04414276473581   -8.09098327010041   -1.13987033022124
C          -4.42373581156145   -8.16737732110765   -1.00952149710560
F          -5.12120430766399   -8.87699000120942   -1.90560963810559
C          -5.09664322645554   -7.52825172683142    0.03073389303202
F          -6.43067732486547   -7.62249467501272    0.11355470123162
C          -4.40081916864391   -6.79972074459090    0.98337666777144
C          -3.02769168513259   -6.73449475873647    0.86248845562610
C          -2.34413466793834   -7.36605469590828   -0.19117741356279
C          -0.91533091715417   -7.06717675590485   -0.06459703428944
C          -0.00784248338606   -7.11693118894373   -1.09557028545620
C          -0.26924259860093   -7.70219992707859   -2.34818808932820
N          -0.42222005396407   -8.19529721297026   -3.37398779237862
C           1.25024852208642   -6.48619153163996   -1.03398641624265
N           2.25846752818794   -5.93636098441691   -1.03681696694412
C          -0.72192476941127   -6.44434206042737    1.21588873389863
C          -2.04677445505716   -6.06512924719704    1.75164940607222
O          -2.27786365294857   -5.39298631164701    2.73221810901264
C           0.38926884214444   -6.25461937904459    2.00648181388309
C           1.62279620138130   -6.90032478546706    2.00728981747829
C           2.72788873038229   -6.57993388904973    2.83638628840102
C           3.80105561306370   -7.50207275827381    2.71415204626283
C           4.97592321732714   -7.31245455545536    3.45852129488290
C           5.06998966435921   -6.23220215324502    4.29637076225251
C           4.01152974445241   -5.31893093164396    4.41448450670130
C           2.85408358497108   -5.47979397586458    3.69745909449125
C           3.53108704525495   -8.54143757130579    1.79152170156891
S           1.95820325062289   -8.35023060822838    1.10106078857002
C           4.38209695798256   -9.59674685688856    1.44011886148574
C           4.12992047567440  -10.49532547373060    0.44081013362072
C           5.01351342871738  -11.53294969910421    0.10907995884730
S           4.72219548211567  -12.58465690271800   -1.25585425982301
C           6.18270076285513  -13.50027752612351   -1.00748478542892
C           6.52826695950290  -14.65933456765528   -1.87151928695475
C           5.72975336809217  -15.90216479724907   -1.46820759143896
C           6.84161141882930  -13.01785318034651    0.08192234793902
C           6.20756291237738  -11.90552327972557    0.73052842993115
N           6.84302733020607  -11.43777541403439    1.81353835214844
C           7.93202033490693  -12.09514227157758    2.07166306089863
S           8.30300271248101  -13.42656565056534    0.91995363434957
C           8.75750543319447  -11.83846799362416    3.18468371048330
C           9.89837925365699  -12.52480851902896    3.46547111848514
C          10.68801628477496  -12.33064720166233    4.61222183878434
C          11.88490341779087  -13.00097356641625    4.95181487291714
C          12.39997894374920  -12.61979480054487    6.22563096581862
C          13.62816618898452  -13.15513009322721    6.64925907780067
C          14.27518535063108  -14.07336112383225    5.86487693920493
C          13.74036892254408  -14.48186846176216    4.63394784752533
C          12.56813180379149  -13.94790809892502    4.17081951112140
C          11.57493529086809  -11.67642088730530    6.88220827441177
S          10.24461427092824  -11.22123861259406    5.85840146972763
C          11.57889949854893  -11.14583846768002    8.18069163160548
C          12.27156018057686  -11.61198819765798    9.26559394699917
C          12.10048332585430  -11.06480371198933   10.54496712797027
C          12.55720470968979  -11.56954017510263   11.73609311969921
C          12.60673452781599  -10.69089845610105   12.92792583493068
O          12.10719164996451   -9.59567081034426   13.04867104273444
C          13.43633931344604  -11.42108462039698   13.91465633138057
C          13.78123270839214  -12.67999825526423   13.39211040525676
C          14.58559974504070  -13.53666251881460   14.12566438679196
C          15.02235080516358  -13.11208581410372   15.37219038489236
C          14.66463906818443  -11.86685729387392   15.88878899418182
C          13.86338587023915  -11.00289875068863   15.15898201922955
F          15.10270886404045  -11.50159232575244   17.09966370100785
F          15.80830442512728  -13.92063584401268   16.09205597447731
C          13.13402930761505  -12.84363456532997   12.08641441211482
C          12.94946057022267  -14.04876359661570   11.45468668815449
C          12.07732990428867  -14.27297822766658   10.36901742912484
N          11.35405745504873  -14.54356635817827    9.51908078169237
C          13.53913451041272  -15.25752924929943   11.88007737772824
N          14.01169388705546  -16.26667063790789   12.15617907490124
H          -2.56557209198488   -8.60133826431258   -1.95984717411567
H          -4.92083111648372   -6.30443091638608    1.78769162701108
H           0.22343757171522   -5.56864164614092    2.83185795307255
H           5.79259099419609   -8.01074269233426    3.36361866538026
H           5.96866172643286   -6.07387075192387    4.87291473380661
H           4.11699847445622   -4.47505880513225    5.07931982317607
H           2.04977748179738   -4.76700299653706    3.78772277923971
H           5.31056703912475   -9.69273294072567    1.98461631957508
H           3.22658020247138  -10.40766113030861   -0.14880005074252
H           7.59742453046991  -14.86126448884211   -1.77299192048010
H           6.31268097827347  -14.41590777997194   -2.91391078636801
H           5.94200559827987  -16.17102003085549   -0.43595534987259
H           5.99657500346136  -16.73909050029316   -2.10747631437629
H           4.66324643874568  -15.71366536630075   -1.56681727315890
H           8.41653007217620  -11.05267205764022    3.84531644158195
H          10.22431646249597  -13.29310292980456    2.77662019610064
H          14.07824577962476  -12.82637074419092    7.57053178115588
H          15.21734199213777  -14.48644232794606    6.19154975200535
H          14.27296047784570  -15.21084486644792    4.04273115480804
H          12.17386738213563  -14.24097840281471    3.21051996464517
H          10.86498514334058  -10.34859795860436    8.35476780424267
H          12.93486060411276  -12.45268725546580    9.15566848663048
H          11.60110497023936  -10.10424242708922   10.61945482926161
H          14.89121812488978  -14.50718589718602   13.77055542255351
H          13.58597447195677  -10.03918094513716   15.55522337070165
