92
 SCF done       -178.731641627110          0.000538132880
C          -0.63868725919085   -0.65322880886877    1.55589136221036
C          -1.63639172181485   -0.45151101842858    2.49938060584208
F          -2.03905347998457    0.79915624235912    2.75899819622067
C          -2.22378073962453   -1.51483108356390    3.18237221015573
F          -3.18521063393485   -1.27481775051008    4.08484804321773
C          -1.82290664531674   -2.81949872531606    2.93896868864861
C          -0.83346907829006   -3.01994706883253    1.99864115152938
C          -0.23590920259422   -1.95442721173725    1.30596213163296
C           0.76755331621929   -2.49932248693028    0.38990136740846
C           1.49932071334294   -1.77373446654077   -0.51851988846251
C           1.43775317574442   -0.37178317292576   -0.64278654322653
N           1.43601491886717    0.76784772365844   -0.78347141109367
C           2.38379252490060   -2.33592515028526   -1.46124964496334
N           3.10049780203803   -2.72606675537821   -2.26979925691105
C           0.78278895212209   -3.92898731824084    0.55655304132970
C          -0.22158062313355   -4.30089449813799    1.56725517628821
O          -0.45179576799409   -5.39769261006453    2.03604725304863
C           1.74513633273177   -4.78772315624425    0.05839397442024
C           1.69005561544829   -6.17951998495228    0.03236164820885
C           0.59925861788738   -7.07625384272876   -0.03988829804351
C           0.99815291804415   -8.43847700570800    0.04515224391011
C           0.02708444852560   -9.45167151285400    0.00616896562029
C          -1.29037466175415   -9.11265734499693   -0.15580673212570
C          -1.67206725673119   -7.77352588987266   -0.32412683277622
C          -0.74758694370113   -6.76301933107707   -0.27755875904563
C           2.40175902424783   -8.60081254605566    0.14014220494956
S           3.19355952605574   -7.06502951161107    0.06703935330581
C           3.11018037372699   -9.80359241443596    0.28578062597249
C           4.47060308160706   -9.88579410436552    0.37047922129658
C           5.20933832458260  -11.07187843354614    0.54031050678239
N           6.58834788976622  -11.03791188719073    0.63323609286128
C           7.04495459350367  -12.30309744385756    0.80799781064288
C           8.18688608726385  -13.06805721455152    0.98295554794411
C           7.75020372799080  -14.40022863405357    1.10294409758080
N           6.37218194408048  -14.43596017547034    1.00151957007420
C           5.91474795105828  -13.17092555637602    0.82216975144871
C           4.77251363467127  -12.40473354720098    0.65561730032649
C           8.49139410745347  -15.58112612579642    1.30117481708532
C           9.85060419153447  -15.64641789456219    1.41626780971289
C          10.57483833335123  -16.83064521878866    1.61666378632049
C          11.97924101878231  -16.96245336572476    1.73183951911781
C          12.39383875790424  -18.30778293719649    1.92963428544273
C          13.76052990224560  -18.60246659577081    2.05015689344547
C          14.67697171261157  -17.58656029896963    1.97756822796012
C          14.26810036340992  -16.25812610969848    1.78575743899324
C          12.94102753759646  -15.94157469174662    1.66385065899550
C          11.31143445021020  -19.21862712866283    1.96516279901663
S           9.80522831324475  -18.37695086429528    1.75064678481523
C          11.37700212796686  -20.60375484810677    2.09062206261394
C          10.29534744977014  -21.45210095112790    2.10684776267290
C          10.35857188351200  -22.84429688566101    2.22243027612543
C          11.41879094737057  -23.71166037187190    2.06171765644351
C          11.33661827082563  -25.04277558894268    2.70407332494876
O          10.36489372699317  -25.54982633671264    3.21908614255342
C          12.70783108424551  -25.60182230925976    2.62542918760876
C          13.52103060896213  -24.72542127240391    1.88755925774059
C          14.86283785410266  -25.01289366341732    1.70405175586870
C          15.35991033851235  -26.18065565621679    2.26557696843746
C          14.54361735013949  -27.05186525003994    2.98477364403134
C          13.19943328802640  -26.76904876352463    3.17314923769977
F          15.06450956380199  -28.17184478885861    3.50391451184534
F          16.65845262670015  -26.47011628121584    2.11347780287814
C          12.69793907468086  -23.60718490320136    1.41376435451403
C          13.04061200152106  -22.78713914961117    0.36324401982128
C          12.14941940740689  -21.89476899898938   -0.26129463786826
N          11.45981713382030  -21.16956677816946   -0.82475943341653
C          14.30516598693004  -22.78134950685650   -0.25497448143367
N          15.32762211738899  -22.70474522775287   -0.77261462218211
H          -0.21144920216923    0.20172086925631    1.05805868844985
H          -2.27267297894641   -3.64450885084989    3.46791155576717
H           2.67672684208951   -4.34996817581697   -0.28176753893397
H           0.32079797585457  -10.48663215107620    0.08828608616783
H          -2.04546352118451   -9.88369062528109   -0.18348559692993
H          -2.71148484760596   -7.54135930774219   -0.49970673616897
H          -1.04136885207354   -5.73998711108634   -0.44627530823246
H           2.52314070856727  -10.70784161471680    0.34184851435976
H           5.04127451157543   -8.96669979389058    0.31091796129446
H           7.14012203429314  -10.19888748606629    0.58125941136204
H           9.20379433810280  -12.73567201424867    1.02229979607693
H           5.82098759616972  -15.27542393442754    1.05210889487013
H           3.75483664020644  -12.73524394161196    0.61917530199201
H           7.92679701324307  -16.50325566344236    1.36601986017985
H          10.42612915056656  -14.73535908043818    1.34929886871402
H          14.08560228240901  -19.62100949269864    2.19529962267430
H          15.72997835891245  -17.80599474402433    2.06578500213090
H          15.01460557207799  -15.48052854692707    1.73139956126295
H          12.63429387221429  -14.91836019689723    1.51272119491341
H          12.36594982925719  -21.02057887811924    2.22401583473854
H           9.30812105459346  -21.00799729587874    2.09675347897570
H           9.45261475657153  -23.33585077049617    2.56475239237121
H          15.53394612331206  -24.37103847581577    1.15706451048358
H          12.56636773044524  -27.44156025594113    3.72949005599514
