90
 SCF done       -179.626374622850          0.000941623647
C           8.68353339690006   -8.94393466875265    6.69943830273540
C           9.29172945352726   -9.39126735786034    7.86335142036693
F           8.66141316900933   -9.21965230220529    9.03095980156602
C          10.53873863246859  -10.01628660745785    7.84393694189567
F          11.09137584976054  -10.42445582578615    8.99270243676914
C          11.21006561565348  -10.22149683686376    6.64864631854146
C          10.60065953563553   -9.78703316480543    5.48863951721201
C           9.34913692190884   -9.14615547348611    5.50227810735253
C           9.00364207787073   -8.76416806015639    4.13160446584157
C           8.12742556702819   -7.76421944067939    3.79200455224675
C           7.26854662238313   -7.12454957091261    4.70697030220352
N           6.53339573965992   -6.59037834601618    5.40847811334038
C           8.06824203086017   -7.19917081685070    2.50222421185377
N           8.03222602637537   -6.68334367201273    1.47729202778881
C           9.95883595463044   -9.39933379181563    3.25900628420368
C          11.07817127810901   -9.90301595372936    4.09019700448438
O          12.13376749007318  -10.34766440103898    3.70179675549428
C           9.96399476220854   -9.65866484243964    1.91324001763078
C           8.91192473950086   -9.69874904623123    0.99140013913568
C           9.04043213709114   -9.76422267466475   -0.41367627386570
C           7.78578891992006   -9.86192205144302   -1.07740204845457
C           7.74360415450089   -9.91331494382944   -2.48197373374990
C           8.91491800317636   -9.89167690684191   -3.18841718167228
C          10.15431262477635   -9.81158563669597   -2.53124053545531
C          10.22556086532190   -9.73477597792192   -1.16622475697384
C           6.70356066145145   -9.93918224127050   -0.17959765270115
S           7.24410619347096   -9.83888631153561    1.44901670488759
C           5.35930526190475  -10.21658935477910   -0.52320661793319
C           4.35768822328284  -10.48361348087826    0.34512725615609
C           3.08851292696115  -11.02295321988812   -0.05209641950105
C           2.83773344713935  -12.14728123909167   -0.81561999616817
C           1.43058865394287  -12.42150645683153   -0.92810649585027
C           0.79914243588685  -13.40979888359341   -1.67977325452414
C          -0.58664939083286  -13.47526594309990   -1.67750366856763
C          -1.35671735393352  -12.56059760017436   -0.93895128557692
C          -0.74351735352755  -11.56812873046040   -0.20884270742464
C           0.64404030296998  -11.50049842574725   -0.21002051791702
S           1.62531924399974  -10.32687747121156    0.60995369784733
C          -1.23380581190721  -14.48082969971952   -2.43360391935120
N          -1.75627163262534  -15.29710723136167   -3.04495375921774
C           3.84215844227537  -13.07147420973100   -1.28584927995128
C           3.92139773890210  -14.43729902362347   -0.97016968837702
C           5.10334755006804  -15.05377994346110   -1.48211728610894
C           5.34697311563373  -16.41239790586050   -1.22017538096853
C           4.45292655695392  -17.12284995422229   -0.46632491832641
C           3.30413348293702  -16.50936541751971    0.06543485582608
C           3.03628169806705  -15.19058773238575   -0.17097265856924
C           5.92047116114375  -14.15562246620289   -2.19681520920869
S           5.17840320422494  -12.59037207236041   -2.24824246615101
C           7.22626350512083  -14.33727716388138   -2.66664290648762
C           7.94318022053548  -13.38682942417238   -3.34275187244871
C           9.29174018330209  -13.49551571263430   -3.71793861266070
C          10.27259741898506  -14.30248421393427   -3.19901310546215
C          11.47672160078165  -14.59015529230166   -4.01362756270047
O          11.82042144910499  -14.03387327582181   -5.03107525409893
C          12.13695065700528  -15.73233531561509   -3.33750550286737
C          11.46106906220350  -16.01459792396050   -2.13740776274180
C          11.87101343571149  -17.07095160045004   -1.34126397801150
C          12.95618517924422  -17.82301302667436   -1.76799761817446
C          13.62974378958166  -17.52892328900484   -2.95368045145230
C          13.22395172868080  -16.47315689952435   -3.75539346511658
F          14.67507290918783  -18.27746648248890   -3.32365571153525
F          13.35850336863676  -18.85868727729846   -1.02371150933925
C          10.38297608323414  -15.03709750504665   -1.96414853748368
C           9.79555554777703  -14.73147394868389   -0.76029386514671
C           8.94922781339490  -13.62925382282711   -0.54156021814218
N           8.27846818486910  -12.73595153059662   -0.27222750593015
C          10.01948442861324  -15.45324203226279    0.42947450294751
N          10.14055882673913  -16.02108563297596    1.41984099646794
H           7.71889512128243   -8.46707966066579    6.76192297021171
H          12.17425384923362  -10.70393245076452    6.63278041513996
H          10.93097473378748   -9.97064629383420    1.52922198672789
H           6.79432022641934   -9.96202992660601   -2.99302684753433
H           8.89630237124582   -9.93032149173784   -4.26730120370395
H          11.05967526844431   -9.80417702979938   -3.11900378312861
H          11.18015527329118   -9.65783393322923   -0.66990560992588
H           5.14195581256996  -10.22928276374264   -1.58073741065920
H           4.49948902654220  -10.30767903542854    1.40435396741661
H           1.37823684049642  -14.11395693162493   -2.25814187156579
H          -2.43260496337196  -12.64147710316119   -0.95737057237390
H          -1.32257965576041  -10.85230596748108    0.35254408617052
H           6.23167840451140  -16.88604268448963   -1.61702295228159
H           4.63007632501002  -18.16803607106051   -0.26435711479513
H           2.63034177832692  -17.09468828957169    0.67188379454144
H           2.16083625673727  -14.72017447036002    0.24887902629432
H           7.67910272859725  -15.30093268778486   -2.47241446653199
H           7.42251553933983  -12.49528697780096   -3.66637263407558
H           9.60861185695223  -12.90345136013834   -4.57066608008672
H          11.38123636415197  -17.33790554687025   -0.41896912679385
H          13.74304112291024  -16.24553456813029   -4.67266815560408
