100
 SCF done       -199.244230832685          0.000848029487
C          -1.25564290122712   -2.10568845974280    3.72801629168576
C          -0.68882457578504   -0.83983886957185    3.75472981100913
F          -1.45604547526125    0.20647547185117    4.07646279772460
C           0.65732864446551   -0.63315199187014    3.45018165110500
F           1.16177831944106    0.60515380690035    3.48949496659445
C           1.47659927392858   -1.69683434026024    3.10626947926586
C           0.91338946903891   -2.95733894512776    3.08282596698068
C          -0.44141430121082   -3.17398497997944    3.38743942671469
C          -0.72469601164665   -4.60208787657938    3.26906138912716
C          -1.89248681723264   -5.22731188320284    3.62038730894045
C          -3.04187379987727   -4.55265448834883    4.08150249659979
N          -4.00464789814961   -4.05105115611300    4.45350174127851
C          -2.07178595028691   -6.62711411007662    3.61125742822534
N          -2.26222725364683   -7.75810436063338    3.66107355125273
C           0.48744409973770   -5.25474796542108    2.82560676181502
C           1.56000162028235   -4.24265599764183    2.73328982555985
O           2.69904889762764   -4.39589080202606    2.34778315555665
C           0.57036266162014   -6.52206813030716    2.31075623906516
C           1.72989460065276   -7.28772163965228    2.06302061029869
S           1.68698869009124   -8.40307914948822    0.71434252409291
C           3.24429791587630   -9.05773385796696    1.11268071293727
C           3.72687938561708   -8.47157676533100    2.28232361809601
C           2.90081130222779   -7.46135269913915    2.79362296155004
C           3.30427717093316   -6.76822111782006    4.05487125013607
C           4.62688792361455   -6.05066275615281    3.83198112399847
S           5.89874142853270   -7.22654948270255    3.24905772509559
O           6.41164583115538   -6.79206302922106    1.98150815227192
O           6.84532667505058   -7.45531392258091    4.30735118979944
C           4.98556089933274   -8.80270678931259    2.97791041030122
C           3.86746040853656  -10.04929020066991    0.32047659305627
C           3.41092293232596  -10.45878036438929   -0.89145624234312
C           4.01892546855943  -11.45450810112120   -1.69102953114338
N           3.60552203293238  -11.67530824468204   -2.98952636681915
C           4.35955598845784  -12.66947801039958   -3.52274368544800
C           4.59751106301998  -13.40963863874040   -4.67384034779035
C           5.62364434141036  -14.31017871392384   -4.35272188566759
N           6.00280000785082  -14.12329159894675   -3.03801545350644
C           5.26039434167361  -13.11324741055612   -2.51569817671511
C           5.05469054653845  -12.34810967383101   -1.37616836953196
C           6.20509468943068  -15.26756466443795   -5.21622589074130
C           7.05197750351087  -16.26652103630391   -4.85353508189916
C           7.63030152656762  -17.17511746523876   -5.77496118652065
S           7.54600325219311  -16.87267222922826   -7.48011889159958
C           8.39014076222596  -18.35115461462818   -7.83297679821814
C           8.70361739227915  -19.04334448213893   -6.65776523958019
C           8.30561320345131  -18.36776866786186   -5.49911077673877
C           8.50136938619777  -18.86841753664933   -4.09752163049661
C           9.68813132099866  -19.80062441112370   -3.97899174317171
S           9.33019974675658  -21.19253552315580   -5.08483672577945
O          10.39498648789145  -22.15343006814216   -5.03545367908931
O           7.99451120958270  -21.64995622904210   -4.83201763882345
C           9.39527291677915  -20.36190326859928   -6.70167479037363
C           8.69293165424620  -18.71824454580810   -9.15769321124617
C           8.44892290421337  -17.92481820711818  -10.24159162388768
C           8.77332821957242  -18.31052884590487  -11.55127343117789
C           8.57621869000468  -17.60914899109143  -12.71121136610710
C           9.34027123511703  -17.99653571299690  -13.92148413612247
O           9.96357547918067  -19.01841689362866  -14.09517897398122
C           9.22278477031696  -16.84090603071255  -14.84067764566085
C           8.37004546409197  -15.87870629968532  -14.27187553517611
C           8.14035465442098  -14.68190193606260  -14.93086478460094
C           8.76962322490427  -14.47913649331557  -16.15041023705491
C           9.60392046640238  -15.44462869066779  -16.71398104949600
C           9.84060550952330  -16.64300406691903  -16.05934418226627
F          10.18645458903437  -15.20799636203419  -17.89561554979838
F           8.57189299983198  -13.32431132196549  -16.79631963754049
C           7.84656182408780  -16.39876278279921  -13.00497969284690
C           6.73879203520418  -15.90967195285493  -12.36139417856281
C           6.05705132394683  -16.55510414185482  -11.30823518369298
N           5.42026392316515  -17.03334691890649  -10.48122078405010
C           6.06749563601943  -14.72772936482358  -12.73942739760416
N           5.49209321162260  -13.76368719773621  -12.97920047792317
H          -2.30169059175482   -2.21514960284467    3.96331965419283
H           2.51590199410892   -1.53847093023099    2.86639836163736
H          -0.35547675140686   -6.99867959728882    2.00733465925178
H           3.42469049672345   -7.51269768894216    4.84871729175471
H           2.54163602290598   -6.05782369153794    4.37424336935519
H           5.01804623069309   -5.62221402202346    4.74969138926061
H           4.53186151956317   -5.29273895011632    3.05992610702535
H           4.82510117842010   -9.21711734905653    3.97158496270438
H           5.64819715600848   -9.44485261044506    2.40763918910636
H           4.77878094747593  -10.47545635952295    0.71168896351743
H           2.52746174129487   -9.98240016606376   -1.29912416645535
H           2.88761595280911  -11.14769462141620   -3.45602300544047
H           4.10907018288368  -13.34365465177539   -5.62476355095274
H           6.74889162876788  -14.61465016914020   -2.57895093362510
H           5.55781260944714  -12.41804726979017   -0.43366987810423
H           5.91518786526781  -15.18874290993989   -6.25533348805177
H           7.28827951894658  -16.42185726993592   -3.81020891986648
H           7.60827781233749  -19.42821673728460   -3.80042061381388
H           8.61795603818316  -18.02527127083597   -3.41275319947022
H           9.80596099916419  -20.18987329675898   -2.97170896186374
H          10.62010643906000  -19.35871462632492   -4.31988306950136
H           8.92134251455996  -21.03754027126444   -7.41156867330311
H          10.45344374937837  -20.27096128783001   -6.94441990371259
H           9.14574699718120  -19.68893623528163   -9.30986460732949
H           8.02272957797087  -16.94697030470509  -10.07185608391604
H           9.32606113827810  -19.23673200053420  -11.67235777371634
H           7.50813766475600  -13.90363709921591  -14.53588510347170
H          10.48756566399683  -17.38996414372322  -16.49086008187553
