88
 SCF done       -176.431064218961          0.000895768938
C          -3.97984243490996  -14.08784279937453    3.53934738048959
C          -3.80796594211985  -15.22065264495837    2.75785584116223
F          -4.86560360592275  -16.00191418543788    2.50840467233891
C          -2.56448507171038  -15.56301283145196    2.22680386207227
F          -2.44476445631067  -16.66638331278041    1.47716669189025
C          -1.45262439785998  -14.77153194292391    2.46614342785010
C          -1.62353465078187  -13.64303272574818    3.24254386050661
C          -2.87206506281581  -13.29086598398178    3.78331651149547
C          -2.72905445914933  -12.05169284248026    4.55078776860986
C          -3.73474526364747  -11.41878514210408    5.23536192308705
C          -5.06804790725530  -11.87505780362756    5.29086623072246
N          -6.16760746676392  -12.19321017500893    5.37647871578312
C          -3.57693178813453  -10.23094057731639    5.97897123091842
N          -3.51608664941465   -9.26679424212143    6.59972140194400
C          -1.34836536526515  -11.64234313833853    4.44837966198788
C          -0.61146090868062  -12.63392448359515    3.63590064862397
O           0.56424418468556  -12.62690100552441    3.34524937656258
C          -0.74739693519813  -10.52309603451743    4.96316191687716
C           0.58408814291415  -10.24901962332863    4.76863418135505
C           1.75606290769312   -9.94392210792468    4.61193763944898
C           3.08204973207094   -9.69679198145515    4.35781869378202
S           4.04803369695402  -10.87111089003810    3.49485772965237
C           5.43099260884460   -9.81837075185878    3.57670023363910
C           5.13700488186762   -8.63474114502061    4.24020200352440
C           3.82465973657776   -8.56974320841760    4.68126584980711
C           6.63655475953321  -10.18996937279037    3.01351907458159
C           7.67659275129025  -10.54554548259653    2.49161736467698
C           8.85576916388048  -10.95676996345109    1.89192752511326
C           9.89807022796817  -10.12490237461506    1.64412249990266
C          11.10624060254794  -10.51083001542712    1.01016407284167
N          12.07426104208984   -9.57476351104064    0.70093875777718
C          13.10862254100529  -10.20572620428318    0.08720396613880
C          14.35223517588712  -10.01788359013965   -0.50742855877173
C          14.78039442300459  -11.28493549884944   -0.92163150916081
N          13.82352310098984  -12.22282990606196   -0.58852802020054
C          12.78974448166483  -11.58625857724659    0.02031008290386
C          11.53704436980425  -11.77639916432191    0.59324085022700
C          15.99454960132106  -11.59537803929358   -1.58494667391446
C          16.42826973570254  -12.84122382498144   -1.90151982462625
C          17.62271195442059  -13.08383198397968   -2.56303384118952
C          18.66430328912210  -13.29486168987388   -3.15440865427360
C          19.84491618453280  -13.58249761296355   -3.81257029450401
S          20.46842960625614  -15.20829258452693   -3.85248837320491
C          21.83905718360840  -14.68219907391471   -4.80243140409337
C          21.78001701289278  -13.32247923400764   -5.05902044099171
C          20.66738406880662  -12.70624600583525   -4.50132218464010
C          22.81201538701682  -15.57947986127721   -5.18098227499182
C          23.65640591235184  -16.40728029285242   -5.47765855462561
C          24.62676608034667  -17.33416557120010   -5.79071000053040
C          24.62030755601119  -18.60184730318382   -5.28530092403326
C          25.61199669231431  -19.54570662389260   -5.60439358331972
C          25.77762690259753  -20.79473177029061   -5.06786344989909
C          26.58288412886731  -21.80538718177147   -5.79210243664356
O          27.32563995549911  -21.61690025982959   -6.72826086272287
C          26.23858141362664  -23.10034969302122   -5.15740656398882
C          25.37871598327055  -22.87238798628959   -4.06859211692731
C          24.89106764048266  -23.94064056160017   -3.33390537085888
C          25.28009697970753  -25.21845078162953   -3.70821755181516
C          26.14212465756435  -25.43595685417272   -4.78286051578474
C          26.63289345381339  -24.37188951716066   -5.52296821529218
F          26.49572302165022  -26.68673603424065   -5.10520797109042
F          24.81110928719049  -26.26604669756568   -3.02003437997828
C          25.18835155846104  -21.42812209474069   -3.91297018656826
C          24.73814810666368  -20.81380267040749   -2.77225230926381
C          24.85167740591398  -19.43140194045980   -2.51305498557120
N          24.96947905122553  -18.32848925202462   -2.21737651660779
C          24.21036637865414  -21.50567350463143   -1.66266159749165
N          23.74696174783173  -22.01537884237008   -0.74423681989474
H          -4.96144759015511  -13.86716750661062    3.92539828650833
H          -0.48949748430303  -15.03153622712535    2.05684585329929
H          -1.31393666021617   -9.80219847486396    5.53797738003584
H           5.86906452604131   -7.86117253167111    4.38921793158451
H           3.40134250446187   -7.73803837315249    5.21603263405373
H           8.90381371807372  -11.99783695730364    1.60324627271350
H           9.81058876712624   -9.08316673317758    1.92778207694023
H          11.99674715608131   -8.59069147461732    0.89185266482394
H          14.90040027607468   -9.10598679326814   -0.63424562749943
H          13.88312406023194  -13.20487330349983   -0.79126084914309
H          10.99827840559868  -12.69475643725454    0.70868076807086
H          16.61439269101977  -10.74802961929631   -1.84341306095812
H          15.85727648055365  -13.72275863168260   -1.63692281653447
H          22.53520920794278  -12.81281343337502   -5.63047298111531
H          20.44579209548059  -11.65745256258912   -4.58705225700427
H          25.43475774503092  -17.00918510109921   -6.43498276940223
H          23.81036401356095  -18.88876066454320   -4.63005330717704
H          26.28317781205811  -19.30692342975524   -6.42333422658937
H          24.22127086796514  -23.82262275740216   -2.49782196790030
H          27.29872730565863  -24.53828840468623   -6.35462868568693
