118
 SCF done       -198.361305616708          0.000876897588
N          -8.85781541950248    6.56843256341318   -8.57060490899894
C          -7.67110286502612    7.15148101871292   -9.00956194602178
C          -7.42870408350203    7.52920925563050  -10.29722015641006
S          -5.89193961256176    8.27744081361515  -10.48984939747581
C          -5.54428434981027    8.07588556075031   -8.82645685650238
C          -6.56931814546635    7.47693544952144   -8.15175764735181
N          -6.58198824511598    7.21668950333384   -6.77880054225068
C          -7.86341671166126    7.30564236611681   -6.11145755327616
C          -8.57684608122813    5.96105965076202   -6.18413208657549
O          -8.87722975169808    5.31787077387168   -5.21764415397661
C          -8.80754310095397    5.48489381842738   -7.60769152006096
C          -5.47175136775012    6.82439234593301   -6.12882541408681
C          -5.37714317357917    6.42170738417033   -4.83082718946686
C          -4.11755967182472    6.07457741118956   -4.30018973370425
N          -2.99499360615479    6.19537495975016   -5.01500247852202
C          -2.00054935409605    5.82168872461484   -4.20041239872297
C          -2.50146872545767    5.43211876724565   -2.87206082191596
C          -1.38366347206668    5.03854878453482   -2.00315363518909
O          -1.41589178748232    4.66949849187401   -0.84261094662771
C          -0.21433642375809    5.20971432925041   -2.87594799574094
C          -0.62688341746788    5.68793523168051   -4.20200268259968
N           0.44541319799488    5.85243722516971   -5.00971875095455
C           1.48238488789725    5.50907923309911   -4.27326884931527
C           1.14379067693951    5.09854043946556   -2.93736896871140
C          -3.86675391584514    5.57919949240256   -2.92566993217169
C          -4.86896204582358    5.32502922048814   -1.94772849973659
C          -4.56502504294860    4.96548379649609   -0.67973286445104
C          -5.48317347665957    4.66399958412920    0.38368218269589
C          -4.96345650150758    4.46414867985502    1.64923946528380
C          -5.80590801869312    4.14123023010166    2.72491529201003
C          -5.52241095411309    3.86943817609304    4.06280782303103
C          -4.16002052765640    3.92459805814278    4.66956715764160
C          -4.10855246268032    4.61677903127381    6.05016877789188
N          -4.42834103381167    3.73460395182152    7.16407488583048
C          -3.54422374322843    2.50098332381725    4.68617146675726
N          -2.13156863688516    2.42709920634640    4.98560551387556
C          -6.75801336730450    3.45812042864488    4.66787009493845
C          -7.03298242209295    2.94776806265133    5.88679046188060
C          -8.38531019220512    2.41057200891810    6.18872583295781
C          -9.46023546033558    2.82522979758144    5.23686417611875
C          -9.16834226162429    3.32948701824590    4.01971699070967
C          -7.82695108322289    3.59157127002744    3.66350785301354
C          -7.23151244079549    3.99353808730183    2.48331980836605
C          -7.74233438002465    4.21393620756809    1.18460344814038
C          -6.89596434838527    4.54031881252793    0.17416056986600
C          -8.26233251806809    0.92515593432705    5.92386416705612
C          -8.54575257282004   -0.03351111492215    6.81487297170703
C          -8.50967572343390   -1.44070778274175    6.54284851121329
N          -9.27101444981257   -2.26228345661345    7.24529686725108
C          -9.12990062006389   -3.47962063252757    6.67429743521161
C          -8.21056963574802   -3.42625507846084    5.53273433795543
C          -8.07400592727758   -4.74540929340869    4.91992447183244
O          -7.42741795261896   -5.06468057249614    3.93641194030755
C          -8.92830710851885   -5.59161588706545    5.77507501662493
C          -9.55876285138753   -4.77770224046289    6.82823786861920
N         -10.32847538069368   -5.55067662289020    7.63510611809098
C         -10.20618461158247   -6.76741905274963    7.16008835800553
C          -9.34022178446322   -6.86663456854967    6.00675377685366
C          -7.75190378127816   -2.13138876462148    5.47135686363821
C          -6.75143133597775   -1.54652303711801    4.65169813042283
C          -6.32800679121067   -2.15449097158652    3.51761660539722
N          -5.39067883035841   -1.68276595750951    2.65574755650788
C          -5.20825427173519   -2.26521706049255    1.40194957317307
C          -5.33450775825460   -3.60335394549068    1.15843236586437
S          -4.99695193259014   -4.00435122922105   -0.47204836266084
C          -4.70209663247384   -2.35735599722359   -0.85492877991201
C          -4.83882242875821   -1.52811744473191    0.22242337497513
N          -4.62805713198843   -0.14654306070957    0.16394750433424
C          -5.60344062752028    0.73536504116837    0.75889368318953
C          -5.76672360225363    0.55619987760693    2.25215878779549
O          -6.69806146373382    1.01138632534040    2.86725342353714
C          -4.76015330666310   -0.39394197113680    2.87484264796401
C          -3.73791901728499    0.33685664170285   -0.78545359991484
C          -3.71324602087845    1.54270220624911   -1.33799640713801
H          -9.48004572654167    6.37594609669598   -9.34329247531631
H          -8.07537377248757    7.41720970766722  -11.14384308333291
H          -4.61271800550179    8.42534645324096   -8.43020583423676
H          -8.47938460530077    8.05077599572252   -6.62269643537297
H          -7.72321659986940    7.60444615578859   -5.07154911972493
H          -9.75123576745534    4.93661418563982   -7.63259427089257
H          -8.00396281967018    4.76066308752725   -7.82619090429891
H          -4.56182741367426    6.81838720948031   -6.71174131968737
H          -6.23972746472255    6.34196771409482   -4.18953032879257
H           2.47577985366474    5.55264327443942   -4.68558706340060
H           1.83794898006102    4.78193525041851   -2.18363504619962
H          -5.89758352668876    5.43352222678551   -2.26158474515298
H          -3.51765634010901    4.89613185614876   -0.41455436282506
H          -3.89596782668498    4.54983004809391    1.79656871842897
H          -3.53878605438604    4.53333100534875    4.00075338270754
H          -4.84293069805552    5.42667823049020    6.04979335743148
H          -3.11215458090356    5.07808534010045    6.16275956902280
H          -4.54355683452829    4.27934298757504    8.01110647963306
H          -3.67895733023118    3.07003993285975    7.32588268539580
H          -3.68885493981522    2.06736693456267    3.69319599173245
H          -4.08568420954103    1.88817586913485    5.41023157030929
H          -1.59087146285713    2.91093990727127    4.27691343311364
H          -1.91988784256546    2.85458160265507    5.88008021520731
H          -6.25960608668210    2.83391886928450    6.63408375774399
H          -8.66613919630600    2.58228836591217    7.23075437376586
H         -10.47358422072039    2.59786885903394    5.52872504844096
H          -9.95366375322991    3.55471616181071    3.31233333282198
H          -8.80199805240570    4.10588893600305    1.00467427639388
H          -7.28575466248801    4.69146529999902   -0.82070420820973
H          -7.98714944180299    0.69744222996985    4.90520743912133
H          -8.91553679863121    0.21974800776939    7.80042403936897
H         -10.73030020380983   -7.58601982081324    7.62258017401948
H          -9.10489224085367   -7.76965446190579    5.47803778481509
H          -6.35632178717408   -0.59730118630680    4.97351859940034
H          -6.77369365419395   -3.09492974437375    3.22778465844038
H          -5.59491197368618   -4.37817325148966    1.85116537253139
H          -4.44976812182832   -2.08395894606482   -1.85917999366254
H          -6.59176089172368    0.65413415226942    0.28178515319368
H          -5.26560918510828    1.76789922327005    0.61998873287458
H          -4.63152191003115   -0.22188465596735    3.94211379086101
H          -3.79202662996147   -0.36468363711940    2.37443188797987
H          -2.97714554750137   -0.38949629723698   -1.03719341102358
H          -4.44221504284157    2.31072512976510   -1.15437505923829
H          -2.91635662288627    1.80790686447971   -2.00697524138074
