148
 SCF done       -216.681783529525          0.000487137945
N          -3.79798193397240    0.01089535969259   -0.61891342666247
C          -2.57987066045515    0.49966436509273   -0.17474632020281
C          -2.19001315996619    0.46247502728173    1.13229494938037
S          -0.70113012518113    1.28469817979444    1.40252591004856
C          -0.56609816150684    1.65729744755056   -0.26355570948180
C          -1.62082623508710    1.18902476438464   -0.99032989762795
N          -1.72152826481150    1.27700912174340   -2.38684042419405
C          -1.84332667371283    0.02331750040097   -3.08213598789661
C          -3.17599966901970   -0.68152183903650   -2.85995715154923
O          -3.38133780508293   -1.80220894693183   -3.24855905681536
C          -4.16643437387142    0.10722900597059   -2.01674647374220
C          -1.51830948071148    2.45066993043202   -3.07202797076918
C          -1.51659204862216    3.68016695428166   -2.53495244796522
C          -1.31594541538179    4.91471984132093   -3.26138236225348
C          -0.85592417379883    4.94946668885497   -4.58613102228794
C          -0.69609249173989    6.15511968847836   -5.22541431734527
C          -0.94452576536254    7.36110710937979   -4.54775489948734
C          -1.39049904924421    7.34345068867790   -3.23546328965332
C          -1.57744745142116    6.12684854587570   -2.61064685616635
C          -0.59982874526975    8.46435041074474   -5.42123539919793
C          -0.13319694583660    7.93956568122121   -6.63572164728939
C          -0.22480715264247    6.42773657939199   -6.63691800745630
C          -1.29712900258024    6.04656718279857   -7.68438860059229
C          -1.71008177468093    4.58086169635022   -7.71218605320484
C           1.12529094805296    5.76359642996341   -6.94070111742850
C           2.22194002318467    6.22500293827213   -5.98776534633291
C           0.29077668306637    8.77263446077159   -7.64311141215255
C           0.26382910204914   10.15799692996878   -7.45117632993690
C          -0.20679522532189   10.66911340755648   -6.23995921877671
C          -0.63910205792213    9.83613905037499   -5.22497236640497
C           0.73061192676470   11.05829229264306   -8.51119133548435
C           1.44484842303787   12.18606690393461   -8.21436669284967
C           1.90290883177388   13.03077880639476   -9.25321282130348
C           2.63045977321989   14.20657079259759   -9.21710109238321
C           3.09543026230220   14.92255010816134   -7.99041656084022
C           4.59834415636670   15.24762167302631   -8.02366182661677
N           5.13205813734392   15.22415178048194   -6.67228872007794
C           2.24890935702446   16.18681645391609   -7.75754968357827
N           0.90227018897645   15.80024278543628   -7.37621746501460
C           2.80025140294301   14.63542068239274  -10.58795419489042
C           3.38539509829944   15.71852440580972  -11.13003509234763
C           3.42271549595522   15.94678048998213  -12.59945894872533
C           2.79115566701325   14.86038077336086  -13.41747438665819
C           2.18207251514309   13.79763770457353  -12.86236307119818
C           2.15083440545648   13.63955192929761  -11.45720052060717
C           1.60383984885386   12.67705880335935  -10.63527422001854
C           0.85041799161926   11.51086946744507  -10.90635009259551
C           0.43283391661217   10.73439864284983   -9.87589509691429
C           2.75867296232580   17.24766247795210  -12.99070374569856
C           1.79129559205067   17.82865965435544  -12.28368768477518
C           1.06486359579662   19.03717420329796  -12.63764028445477
C           1.30013716116838   19.74218371479269  -13.82499408262689
C           0.55831281025423   20.86251946511123  -14.10833739684013
C          -0.43029789093627   21.31609544082105  -13.21950142264861
C          -0.66643657801108   20.63447562803672  -12.03666882266695
C           0.08082250755265   19.50516480193957  -11.76059346921850
C          -1.05170041140481   22.49770788984531  -13.78635715073225
C          -0.44714131895308   22.76612132284176  -15.02398371041159
C           0.63377071103329   21.75615771083853  -15.32433003615318
C           0.32992849780899   20.98021070492658  -16.61893531031217
C          -1.01369852480436   20.26240770470400  -16.57576699671232
C           2.01247470471386   22.43249322356578  -15.44197111237768
C           2.38346705302900   23.23680130334847  -14.20200750200507
C          -0.85190635139997   23.83433172046011  -15.78992706876215
C          -1.87988523104283   24.65167172117610  -15.31633914803730
C          -2.48623402701975   24.37940842020929  -14.09103007069564
C          -2.07320691340349   23.30899025567875  -13.31834549881154
N          -2.34398284857031   25.72167089056632  -16.10803322106391
C          -2.30144362459620   27.02581206086456  -15.65296209538172
C          -1.98215891996426   27.39351915845428  -14.37640308238875
S          -2.09515127088479   29.09244893751558  -14.11787663535222
C          -2.52547747638378   29.33889007780564  -15.75715001445311
C          -2.60403358090692   28.17563173772674  -16.46361987842613
N          -2.91825706402511   28.13147692451486  -17.83361590033681
C          -1.90148397741576   27.58284157960041  -18.69976916981480
C          -1.55001672288917   26.15527327270058  -18.34350068911075
O          -0.50819611055457   25.63834600919054  -18.65498016879737
C          -2.61253224536796   25.45905222080748  -17.50870140676861
C          -3.83504219107081   29.04529128501400  -18.31786754007322
C          -3.96322194694837   29.49256926394764  -19.56194076355280
H          -4.10475533023796   -0.83296613612750   -0.15811402529148
H          -2.70724622734740    0.01753133081023    1.95730757341471
H           0.27967295358745    2.20547127681963   -0.62650337610215
H          -1.04453319032347   -0.67192902051459   -2.78265346390924
H          -1.73942743288927    0.18563949496449   -4.15943519621772
H          -5.16888185032069   -0.30638270406170   -2.13637041403266
H          -4.16504156194835    1.16103198149567   -2.30953234979950
H          -1.39725329047387    2.30765482345398   -4.13675634770101
H          -1.69953620988164    3.78462434452629   -1.47413507811850
H          -0.60004609946772    4.02952497219585   -5.08826451518200
H          -1.58027503950474    8.26542003533913   -2.70554231108048
H          -1.92636946416175    6.10169407151714   -1.58759534696314
H          -0.91533069450078    6.32864222377851   -8.66859591882946
H          -2.18476546653567    6.65440103715875   -7.48893692500296
H          -0.85703257259390    3.93185977200907   -7.89388249218891
H          -2.42987891776902    4.42306791501647   -8.51314198537579
H          -2.18015366268362    4.29628423624025   -6.77459503910726
H           1.41292086082415    5.99983224350770   -7.96774703243939
H           1.01940167495743    4.68030172873526   -6.86299440383264
H           2.36799605584621    7.30007942788596   -6.06378071393678
H           3.16150149008414    5.73099463009011   -6.22629216350212
H           1.95730632054012    5.98784009774439   -4.95953248773545
H           0.67543108565853    8.36659662194678   -8.56766009143466
H          -0.24955582471503   11.74004455972783   -6.10456751739288
H          -1.00291991192113   10.25038580102657   -4.29612826503020
H           1.68494050260243   12.42808642226708   -7.19002804254742
H           2.93541073884758   14.26659900091033   -7.13050951251185
H           4.76215079927440   16.21238982322407   -8.53369627883498
H           5.12109182330755   14.47377809599336   -8.59324524265837
H           4.66736491285605   15.91859774132509   -6.09695635604357
H           6.12391646366589   15.43491786574907   -6.67557042582096
H           2.28377971068717   16.81703815753210   -8.66413379992168
H           2.66743616583171   16.76770299003629   -6.92900165469285
H           0.50783640047212   15.18753349787274   -8.08334162848670
H           0.30369684124971   16.61466092803102   -7.29416988689784
H           3.85327559528502   16.48403400061429  -10.52669489062341
H           4.48298698984115   16.02738385755419  -12.88917498757074
H           2.82297022658486   14.99453069542380  -14.48828004915608
H           1.71794545690788   13.04417652353949  -13.48312913276160
H           0.61120195958596   11.25624637150992  -11.92908723356175
H          -0.16490478732722    9.85551256768301  -10.06948929990758
H           3.08273307911172   17.65208688140741  -13.93839876443321
H           1.48795087273596   17.37095047326668  -11.34956008353524
H           2.05447424805645   19.40363826235198  -14.51827439505642
H          -1.42234846126217   20.97352035413477  -11.34382107122742
H          -0.09993931138132   18.96129406546899  -10.84378082692598
H           1.12449425439539   20.24955576073708  -16.78462156611869
H           0.34175617542324   21.68148476248386  -17.45589764109794
H          -1.03540869356844   19.53682094270393  -15.76559675927730
H          -1.18917576686873   19.73849104505048  -17.51268666406902
H          -1.82362838521996   20.97181931883193  -16.41982923311325
H           2.00485470455260   23.09140018198527  -16.31253146843093
H           2.76649781019683   21.66088617795531  -15.61213386588524
H           1.66348845035536   24.03423760917663  -14.03288099705992
H           3.36774654425508   23.68260932997958  -14.32551918534472
H           2.40134777667751   22.59862805830735  -13.32124121531908
H          -0.38037339104968   24.05129462364725  -16.73666450404007
H          -3.29990031125181   25.00553375429169  -13.75793873534555
H          -2.55344540718870   23.10476768302985  -12.37317406119406
H          -1.68637043225551   26.76618632931265  -13.56205370103104
H          -2.70106997177045   30.33120211538701  -16.12173399732763
H          -0.98659405440095   28.19380154893779  -18.72005815742590
H          -2.29747847588228   27.54695154014465  -19.71991812181158
H          -2.57190690081994   24.38057289720216  -17.66790320777160
H          -3.60907822252520   25.83211984294015  -17.76955972821391
H          -4.53545823446403   29.36112314736538  -17.55624172120337
H          -3.29543827377885   29.24056627486893  -20.36614453912468
H          -4.77384780012908   30.15060423027027  -19.81192233492912
