126
 SCF done       -204.926909257984          0.000534135712
N           8.41048510741558   -0.45354893788054   -4.80387765255395
C           8.97866688068718    0.68136651041327   -4.19430957429871
C           9.08826179992590    0.87355288072155   -2.85131552511790
S           9.86166432248451    2.35404010176126   -2.45338290419259
C          10.07737428088375    2.71732529785800   -4.11416344325146
C           9.53264291362768    1.77372334554244   -4.94314372872345
N           9.51435861671252    1.85804225291585   -6.32944779976602
C           9.34599796930766    0.64569741406702   -7.10831544938703
C          10.14431129808639   -0.51365768070460   -6.52124428549424
O          11.25519783051678   -0.78774006177238   -6.88168965836571
C           9.39480642390562   -1.29611273354889   -5.46526382485073
C           9.49409549647120    3.04864316428188   -7.00667837051544
C           9.10455984394294    4.24926990776517   -6.51889707528050
C           9.14533997281347    5.45775744833423   -7.26981318508839
C           9.51410107110724    5.63224900766994   -8.57730065427144
C           9.25298878480409    6.99362661084260   -8.95098836915934
C           9.54053179081098    7.54278945758206  -10.20507343336190
N           9.77553698513755    7.98500389952724  -11.23940979541030
C           8.68655600301328    7.65997220706522   -7.88595182080216
C           8.63380373264285    6.76470398199550   -6.78067689046391
C           8.31082495862659    7.11524744715345   -5.48353173007519
C           7.55495186767390    8.31832725848971   -5.06721613985900
C           7.71501005845567    8.45752744506422   -3.71341332868995
C           8.50939694953065    7.36516406124905   -3.23224461523560
C           8.83301196769684    6.54064783415339   -4.29066238199899
C           8.89268405715533    7.17541193179373   -1.90035159477768
N           9.20305633454320    7.01761125456442   -0.80519552216306
C           6.69266818882305    9.12483812409516   -5.86421433608455
C           6.04523884858041    8.72659506460834   -6.98417275875975
C           5.18758025923731    9.54934396650310   -7.79143039604352
C           4.29393974666746    8.94369915003370   -8.65643857829957
C           3.42697724924669    9.72370798457525   -9.43851778179073
C           2.41286117060563    9.36900752992194  -10.32558219415279
C           1.89573557903218    8.02552610274826  -10.70935234664148
C           2.81125870620337    7.37908082729328  -11.77477358516943
N           2.12847598800836    6.26099250493601  -12.39439644610213
C           1.62468439371293    7.08990349472031   -9.50835607878752
N           2.79115859405146    6.34055487018645   -9.06648108596665
C           1.87853571109691   10.60232941296058  -10.85779819830982
C           0.90960305008505   10.83478133484793  -11.76434399449989
C           0.48626522293092   12.21454656840534  -12.12288372089668
C           1.27683116686989   13.29925575951421  -11.45980891900484
C           2.26641660423992   13.05172718581456  -10.58132982480127
C           2.59604556191472   11.72042484634800  -10.23512366727068
C           3.53009464266028   11.17523259402244   -9.37479855956859
C           4.47468520957598   11.76896240512978   -8.50840778018069
C           5.26284649912575   10.97918850161486   -7.73512236591351
C           0.48263817368927   12.44090723421649  -13.61968112153519
C           1.47579196965449   12.06186794470222  -14.42543884783519
C           1.48910937006346   12.32664419838620  -15.84364823002841
C           0.82820547032243   13.33747204110189  -16.48427370506679
C           1.15775702837859   13.29678322123334  -17.88833649978723
C           0.64819766227490   14.15862045703431  -18.86265963275167
N           0.25205450245653   14.87896852144451  -19.66638860479868
C           2.06173912719316   12.28509813117289  -18.09580664665728
C           2.31454959942348   11.64018978568810  -16.83780503584714
C           3.11785907838888   10.52765901357507  -16.65562232099416
C           4.17709399127609   10.05874619144158  -17.59223053561152
C           4.50838465964497    8.77976125680654  -17.22730266511092
C           3.76051765483309    8.44037174240545  -16.05836971283154
C           2.95921467449255    9.51143021893307  -15.68805563391801
C           3.82174615538153    7.20849361416191  -15.40436338822509
N           3.86738840482592    6.19269353475276  -14.86661016716279
C           4.82314248020729   10.82421660368055  -18.59464579129117
C           4.87150755862985   12.18013988122115  -18.61904872687626
N           5.41286545320345   12.93699804734097  -19.61233129033946
C           5.67392354058138   12.43532730984296  -20.88994231554405
C           4.85870282434237   11.57085302065597  -21.56533178288168
S           5.41657598613731   11.24589766619530  -23.14962345698530
C           6.77759172111219   12.26896984099774  -22.92214184922303
C           6.80178038823483   12.84273831343721  -21.68275592036295
N           7.79337420169827   13.69333951067824  -21.21335511942614
C           8.11587129872873   13.65601226741865  -19.80692706516519
C           7.18564235342757   14.53713382722495  -18.98586882494800
O           7.54771525893699   15.31575612109273  -18.15093809590766
C           5.71832802223099   14.32529866236846  -19.35897020100987
C           8.38081210418601   14.62446667728217  -22.05027116893944
C           9.23862445682516   15.57790435344778  -21.70838245649918
H           7.87644163853192   -0.98839265328504   -4.12735254376065
H           8.73449958386973    0.23028608243778   -2.06993198964338
H          10.61207299481204    3.60088952341514   -4.39538141274526
H           9.71190834005105    0.83519594667396   -8.12106306264401
H           8.28561349486775    0.36499948536981   -7.14598949422162
H          10.12425434260047   -1.74788910841469   -4.77525222024691
H           8.87038205622621   -2.10987169367667   -5.97924419234783
H           9.80102645288340    2.96619151329750   -8.04033968137677
H           8.69157263326293    4.30027062228369   -5.52452444864420
H           9.92647553548819    4.90168476295859   -9.24672299688610
H           8.44299232845401    8.70370785686408   -7.85970431712247
H           7.28596855035088    9.21952423008793   -3.08938097261083
H           9.50082448833030    5.70475377178158   -4.22574316578249
H           6.48795212780233   10.10646574890999   -5.45404891964014
H           6.13156826319994    7.69401348499311   -7.29798954155897
H           4.22556293007129    7.86749457350095   -8.71414288839509
H           0.92735712507003    8.17263631237413  -11.19816299810053
H           3.77775892332961    7.12918294991387  -11.31447771471737
H           3.00204647616564    8.12300945955124  -12.55346717096821
H           2.13339176131878    5.44729467386289  -11.78956535104967
H           2.59022267606761    6.00276602034557  -13.26185529116814
H           0.79169461430095    6.42686747109775   -9.79074380037805
H           1.29144381870286    7.70408439107080   -8.66694437670142
H           3.03235097088469    5.62216483360109   -9.74034277407298
H           2.59190626048850    5.88159488706084   -8.18481435037622
H           0.38587340811391   10.03073009810761  -12.26400504918155
H          -0.55916074553577   12.31144677658112  -11.78739743166282
H           1.01621719038391   14.30899163824118  -11.73884131542582
H           2.81796292239203   13.86368535665058  -10.12969033497489
H           4.55914816068250   12.84530893382366   -8.46949543850254
H           5.99303351771081   11.43074169191687   -7.08085943053550
H          -0.37060765871549   12.96751867527848  -14.02043724873557
H           2.32489818417399   11.53180039131975  -14.01484280900375
H           0.17911158885953   14.07106183983743  -16.04422687751734
H           2.42197197476236   11.95338416312191  -19.05001614933927
H           5.24213086920038    8.14658711360011  -17.68930350866192
H           2.23704736285425    9.49698005870064  -14.89460750897513
H           5.36695812522414   10.26429959347560  -19.34517383675741
H           4.48931171891745   12.74940776920014  -17.78278544921608
H           3.94285644463268   11.13282116220442  -21.22487916031177
H           7.48971910351612   12.37779979898726  -23.71389722868157
H           9.15141031867142   13.96679897061009  -19.65827023924234
H           8.01380676537327   12.62774080388678  -19.43939620163011
H           5.52024179358309   14.91956957814478  -20.25931856471041
H           5.08486247300869   14.70818534999505  -18.55505378075731
H           8.05392826143988   14.52923147033420  -23.07522440058512
H           9.58317968005758   15.74850333229909  -20.70521082276111
H           9.62374526583629   16.24000154750463  -22.46046335419140
