150
 SCF done       -225.124543922124          0.000411991569
C          -9.94806685765117    2.76614019266016   11.81743057913874
C         -10.18147411164883    3.50844881219683   10.66714629767287
C          -9.72079047863686    3.02605890560456    9.46065182395038
C          -9.02703181949202    1.80805621790433    9.40702100375769
C          -8.78640604465220    1.07276344247231   10.55742440506786
C          -9.25489306374701    1.56528749888537   11.76333857680910
C          -8.69335858999542    1.53041319418870    8.02617077534819
C          -9.16613289041905    2.58844481588965    7.22683311175623
C          -9.81128673113127    3.65360908849789    8.08547703122630
C          -8.97528512778141    4.95452564903119    8.12732908457973
C          -8.78181377342798    5.66780083319322    6.79566701835149
C         -11.26426349201041    3.92601523255473    7.66810831234255
C         -12.13468448081022    2.67701975502868    7.74981728287734
C          -9.02758634000926    2.53454349557502    5.86187086937371
C          -8.40125342008921    1.42539648227921    5.26427722604095
C          -7.92353959700344    0.39016712168899    6.08614158669794
C          -8.06190345277950    0.43121197661871    7.45751154241847
C          -8.23713420057434    1.41300349535039    3.83589843320034
C          -7.84031856608545    0.34750980814004    3.09955698372775
C          -7.58332300565052    0.41149436339962    1.70533984163248
N          -8.03131982795062    1.39723039102313    0.93507722499133
C          -7.71346213188239    1.05630543168925   -0.32391139968092
C          -6.99173425669883   -0.23031138174058   -0.36556653882808
C          -6.67847271269900   -0.60002632940255   -1.75282674195029
O          -6.08492340496816   -1.57636650642084   -2.16002521068053
C          -7.28457990870331    0.49982909226131   -2.52298439921599
C          -7.89437506834372    1.49004594346334   -1.61648032113178
N          -8.48255107388533    2.48623304055451   -2.32425497073640
C          -8.28128954485307    2.17577323869811   -3.58413675896784
C          -7.54058455935935    0.95315673371264   -3.77988762773183
C          -6.87685820311639   -0.64335810275112    0.93072486599227
C          -6.26685323318429   -1.81319142188866    1.48938915053224
C          -5.72118909886835   -1.81289814257584    2.72013405077905
C          -5.28390574549066   -2.93939311270957    3.50533571316471
C          -5.18136246531098   -2.75429886176476    4.86633515324234
C          -4.90649562826687   -3.83976717801801    5.71495148396247
C          -4.80298647717822   -3.91021994470376    7.09902349636590
C          -5.01146750976943   -2.77898673433759    8.05027714393881
C          -6.09458589474336   -3.11718236461638    9.08928538085904
N          -6.67278076149513   -1.89116466583558    9.61432545141202
C          -3.68641093106329   -2.35632173156127    8.71211491792224
N          -3.86196342447147   -1.12379911251667    9.46589415205917
C          -4.43075466260510   -5.26593019714358    7.41848318530983
C          -4.03927502756290   -5.85307805325844    8.56952219764244
C          -3.44103955493885   -7.20597162929171    8.54093801848806
C          -3.78214087471818   -8.02356242940930    7.33180644177818
C          -4.18865447308767   -7.42810718638362    6.18462648721564
C          -4.41445006127891   -6.03915078179907    6.15914420662706
C          -4.68506329619135   -5.15103994860444    5.13016906405380
C          -4.74072492808336   -5.30387229313577    3.72681571109299
C          -5.03907029650092   -4.23230127428487    2.94543016108252
C          -1.96487211630902   -7.14116436977439    8.18613849190807
C          -1.43388376186131   -6.17164621295776    7.41752731342854
C          -0.15079489646534   -6.22267973013315    6.81657127235728
N           0.78291833988822   -7.11409516666327    7.12208671576836
C           1.77405585337556   -6.91906940482144    6.23278504358268
C           1.44163404072335   -5.84529082754979    5.27972591635081
C           2.51701896441543   -5.68759581953365    4.29017909043190
O           2.56286944542588   -4.93996365949970    3.33391446344173
C           3.51012121772026   -6.68289003764729    4.73009860453900
C           3.01560267548525   -7.41656873155481    5.90885822292675
N           3.92243678057574   -8.33737414578106    6.31582317813222
C           4.92994987030556   -8.21554177170068    5.48192600892660
C           4.74055486074476   -7.20198560207340    4.47081659866964
C           0.21945812910129   -5.36013509222950    5.66666434964005
C          -0.60250545600694   -4.32660065771589    5.12527829744275
C          -0.39685812927292   -3.76127418335282    3.91929295092977
C          -1.21766453434962   -2.72554327620236    3.33518035414678
C          -1.22744003999616   -2.59152554460724    1.93853633100572
C          -1.98247587502551   -1.60875166364835    1.34579029691963
C          -2.75378727512631   -0.74023981256185    2.13812787524775
C          -2.73694264296279   -0.84919622478574    3.52188137292398
C          -1.98031872182260   -1.84208824084424    4.10868949943124
C          -3.46036734641364    0.17321358838177    1.26721667490310
C          -3.14388797461872   -0.14273770997802   -0.06492725346218
C          -2.15852592083019   -1.29299652877269   -0.12512580372216
C          -2.71678987813166   -2.54992552004071   -0.82190166853274
C          -2.96843471994396   -2.43742133183497   -2.31959563261169
C          -0.85994914470817   -0.74747781705190   -0.76034591210599
C           0.30069176375172   -1.72765070864016   -0.87139385713135
C          -3.64262856016596    0.62899540992423   -1.08787884196696
C          -4.47771094385960    1.71900898114070   -0.80695066057098
C          -4.79924545058333    2.00409225313486    0.52380923703189
C          -4.30011705880165    1.23968124537342    1.55839097329575
C          -4.94851252315322    2.53072067506628   -1.91865791851903
C          -5.73358248965879    3.60200359073454   -1.84624987480409
H         -10.30990054216758    3.12988437692872   12.76792586651115
H         -10.72104705906427    4.44244467542140   10.72561829232720
H          -8.24559938586515    0.14075260503569   10.50396869423689
H          -9.08248880525259    1.01044212545679   12.67413125642954
H          -7.99264723392764    4.70744772548564    8.53853132643346
H          -9.46210890169891    5.63618326074400    8.82844834969718
H          -8.20330063927369    5.05756095346452    6.10789441821214
H          -8.23773050567353    6.59533006069829    6.96155973431950
H          -9.73430599704978    5.91591167139917    6.33529607804167
H         -11.27917508433132    4.30210385777514    6.64444357742383
H         -11.67764410437323    4.70048295884206    8.31758064976762
H         -11.74927581856888    1.89747394377044    7.09611753920684
H         -13.15259936381328    2.90914123230475    7.44522416702761
H         -12.15894593530265    2.28975687639987    8.76610666400444
H          -9.41790621609714    3.31453089006165    5.22566885572018
H          -7.43120827203885   -0.45875310441467    5.63703183939070
H          -7.69037888036452   -0.37283882426364    8.07880463307512
H          -8.41545258869329    2.34240937054095    3.31070187259301
H          -7.70409384657362   -0.61676222659680    3.56542867826351
H          -8.65996009146848    2.81184730083523   -4.36569495592242
H          -7.27635619417068    0.52713629380900   -4.72787834728183
H          -6.28058380085297   -2.70039967655511    0.87124322833047
H          -5.65870983982006   -0.86531087812847    3.23791544677577
H          -5.34284302884623   -1.77315030582904    5.29013628191492
H          -5.38408811878414   -1.91818897641013    7.48549117878569
H          -5.66176877343416   -3.75986300112437    9.87189063996984
H          -6.89463935011027   -3.68238591655218    8.59836377400437
H          -5.92079617308509   -1.33025824711545   10.01042755665718
H          -7.32960956683257   -2.11470905390823   10.35571827229495
H          -2.91726166624252   -2.27244519176091    7.92438764580404
H          -3.35611515797638   -3.12768132821275    9.41240687633955
H          -3.01057372271692   -0.89173461292365    9.96623675767987
H          -4.06782258286415   -0.35564884256348    8.83421329823142
H          -4.02004000046516   -5.32752472605734    9.51225910704407
H          -3.58852927463494   -7.74388585239589    9.47845814439212
H          -3.58529138440528   -9.08185376593752    7.38243467355351
H          -4.35077678317199   -8.00789104097953    5.28815532133778
H          -4.54368715077588   -6.27123262562937    3.28934714836530
H          -5.07898177899708   -4.33952964593635    1.87266135505520
H          -1.36319076111806   -7.99167880371250    8.46755536170718
H          -2.04784868387059   -5.33186497586094    7.12864009652582
H           5.79727856477386   -8.84462818590064    5.58493702293573
H           5.44214556213267   -6.94824102199035    3.70069811800899
H          -1.45556619350258   -4.01890913230104    5.71571826869692
H           0.42485047530189   -4.11750226461615    3.31162166575735
H          -0.64755741936511   -3.28759024205559    1.35232480211405
H          -3.30293537995325   -0.16106275535678    4.13301757697806
H          -1.95237173285551   -1.92135067797735    5.18553015534155
H          -3.65974351584190   -2.80344127378936   -0.33093581027029
H          -2.02059512122551   -3.37015474644162   -0.63487260350486
H          -3.81160189577977   -1.78464634063369   -2.52045728556727
H          -3.21854708731400   -3.42078040397625   -2.71258549288217
H          -2.09213323613160   -2.07520783961026   -2.85032569867109
H          -0.53998994143936    0.11176298242212   -0.16363794380402
H          -1.10554048398923   -0.37358005010155   -1.75566919902592
H           0.66751799686945   -2.01521219012725    0.10943428551865
H           1.12008312552485   -1.25193490364020   -1.40700294243054
H           0.01478907345397   -2.62131371968766   -1.41925095858145
H          -3.38738877737646    0.42023194769748   -2.11598793274917
H          -5.44217308219861    2.84022342112621    0.74981868431678
H          -4.54458957884114    1.48704246925107    2.58190957343676
H          -4.59596040107342    2.20643492026236   -2.89100790358339
H          -6.12841661899581    3.97834601360066   -0.91923300878833
H          -6.02044667430663    4.14431461216049   -2.73040791259497
