156
 SCF done       -253.634962496697          0.000758392786
C           5.87161833765626   -3.20656782037611    0.76678033184584
C           5.92489723942119   -2.51122748907092    1.96805038345960
C           4.75701131849686   -2.00595054064878    2.50093378443224
C           3.53370037655056   -2.23781282108489    1.85007238512495
C           3.48420327417885   -2.93038813120512    0.65082476558903
C           4.66708711023610   -3.40489048857013    0.10979664792453
C           2.46666200907697   -1.68473012551747    2.66089402044217
C           3.03283504947495   -1.11598816552905    3.81366465232972
C           4.54329924145552   -1.21400460019657    3.77091687368784
C           5.08100934206634    0.23188566772836    3.64887997820032
C           6.57766729237510    0.36690942836216    3.40262265745673
C           5.11328239410303   -1.92760129059777    5.00536852784336
C           4.49616397808556   -3.30624252291542    5.21234064177596
C           2.24104470801788   -0.52699791644134    4.76847884858361
C           0.85034837872263   -0.49511708935268    4.58551688257044
C           0.30146194750397   -1.05445788440294    3.42319631270778
C           1.09335570061047   -1.65647098863614    2.46671615737150
C          -0.04466817069571    0.11789768506720    5.53851382943188
C           0.27451786273842    0.46913333306440    6.79709845735174
C          -0.60754429690068    1.16172090089271    7.69947428654874
C          -2.00104267748547    0.97754005291530    7.75797972853205
C          -2.86670511511419   -0.04424167559560    7.11490515450663
O          -2.56404099114552   -0.97478568476976    6.41180908158356
N          -4.17320809332657    0.25201574286259    7.52133733886561
C          -4.22209459691485    1.33909917590824    8.39746862396314
O          -5.22732115813343    1.80101990414161    8.86972693218047
C          -2.81575177995996    1.75766022699596    8.58468973675560
C          -2.31626345543442    2.72881778935025    9.43098988902988
C          -0.93519095092818    2.87536785136487    9.43754091795960
C          -0.10029957901423    2.12501714579515    8.60688693858216
C           1.32410300882094    2.45914766053418    8.75022776607239
O           2.26947650199142    2.01237959780348    8.16694381109686
S           1.51323308869280    3.73337124183829   10.01354862252102
C          -0.24936143500605    3.84180982002612   10.31444583776287
O          -0.74361142968466    4.58886786716775   11.10448228507160
C          -5.34620389923228   -0.37742574616376    7.10559309689839
C          -5.41124396012613   -1.55036352645653    6.46900975279205
C          -6.63152550876834   -2.17472829622089    5.99879571657403
C          -6.61602552308627   -3.52171990003764    5.71014222939267
C          -7.77056060599597   -4.16416058677174    5.22210247838534
C          -8.02452346828130   -5.48780740916735    4.87328139718527
C          -7.13380391687912   -6.67615842165279    4.96451724483360
C          -6.04399991171164   -6.63486303398507    3.87346204581307
N          -6.64130809028449   -6.87915947594066    2.57145775645614
C          -6.49346670458312   -6.84526106991735    6.35356977458226
N          -5.91118331660712   -8.17391866099525    6.45306187618939
C          -9.36273714207665   -5.52507749222445    4.33298064552932
C         -10.06836978710839   -6.53503350686035    3.79206855715003
C         -11.42065476967346   -6.31233962953665    3.20748513599440
C         -11.95313499081366   -4.92933835320468    3.38194732637625
C         -11.24015217385917   -3.93348462168393    3.94447792663037
C          -9.92863685517312   -4.17596778118390    4.41070276469457
C          -8.95669736129392   -3.35986752978219    4.96838683539557
C          -8.95045366258531   -1.98459410487197    5.28094236969508
C          -7.82573832172043   -1.41723189184925    5.79391708087939
C         -12.38139524047662   -7.35884082276209    3.72158495924976
C         -12.30006919397754   -8.64189033934391    3.37968229442894
C         -13.23114977020230   -9.67826061441617    3.78898947792638
C         -13.59765296982318  -10.66323342797707    2.86648527150871
C         -13.07566643030418  -10.90734527311345    1.50183753389022
O         -12.22101328763554  -10.29424754124838    0.90553203673176
N         -13.76467106289704  -12.01952038363658    1.02536108488222
C         -14.70478401891664  -12.49806592087713    1.94874909892731
O         -15.43724726426277  -13.43442200407696    1.76220928133137
C         -14.57472419352849  -11.62797819082258    3.13642151885637
C         -15.23679398528231  -11.67438597195488    4.34706956030834
C         -14.82998625692526  -10.74992538964931    5.30319277704356
C         -13.84159003611826   -9.78682837480464    5.05553729230481
C         -13.44956480848208   -9.02933483908202    6.25384341377147
O         -12.54759213813973   -8.25431352009831    6.39796930168695
S         -14.51872212400524   -9.49928973613812    7.62674718226713
C         -15.39331796007863  -10.73439514776162    6.66131146744440
O         -16.27650765428592  -11.41128568945425    7.09722706834231
C         -13.58580532976524  -12.67133073644885   -0.19749307014361
C         -12.62485347043850  -12.39785209424925   -1.08298269442654
C         -12.40856442640180  -13.09946612589406   -2.33355065781419
C         -11.18318210770445  -12.90327847248247   -2.98638190536935
C         -10.90819572017033  -13.57528755150301   -4.15375522593155
C         -11.88529311302812  -14.40374971478104   -4.72968010751981
C         -13.10988301011447  -14.59072663046831   -4.10511479607612
C         -13.35799834248431  -13.95063397682470   -2.90729881509453
C         -11.37116069001014  -14.92467199426438   -5.97849850749043
C         -10.07346806926975  -14.42511360786243   -6.17368107365313
C          -9.66621241155525  -13.52452345218602   -5.02277313662069
C          -8.44033487517757  -14.16469108219362   -4.33833742947483
C          -7.90965678105223  -13.44983815137220   -3.10234394149795
C          -9.45002831415157  -12.05941006313886   -5.45419275252302
C          -8.27030852094749  -11.79645704217379   -6.38133696589924
C          -9.34266588804866  -14.82791893070629   -7.26747103175499
C          -9.90834807501672  -15.69176081250085   -8.21431745478181
C         -11.21298824649898  -16.15248682634325   -8.01707444234143
C         -11.94239411603141  -15.78509093170411   -6.90418903008145
C          -9.10093489290702  -16.07821110478536   -9.36333733469444
C          -9.47555114095250  -16.83853040278521  -10.38607505734283
H           6.78225738068847   -3.60193998587221    0.34071015253332
H           6.87056256563818   -2.38796402517372    2.47384260793512
H           2.54207424312054   -3.10288512731290    0.15197385611181
H           4.65139272742089   -3.94561879259127   -0.82525553615788
H           4.82219172249218    0.75952404055663    4.56948364412041
H           4.54660756450636    0.71898455105658    2.82862301021954
H           7.15441240630812   -0.11152932774223    4.18965048717882
H           6.84417499521172    1.42163684736157    3.38490045052956
H           6.85474054310033   -0.06659437048366    2.44558219216145
H           4.92913250082025   -1.30944206947781    5.88639506126587
H           6.19248389003319   -2.03556137047625    4.88983031562739
H           3.42103083925809   -3.22935048016285    5.35901444566137
H           4.93002003994465   -3.78402990780733    6.08782523053760
H           4.67869390783795   -3.94085491456122    4.34753930306416
H           2.68311906606361   -0.07017993261549    5.64016023287760
H          -0.77050770192141   -1.02584959562811    3.29135346335317
H           0.65155592615421   -2.08993740777404    1.58189801120904
H          -1.04053682370426    0.31456459075729    5.16742236244168
H           1.28031551228291    0.31772082278114    7.15792815704153
H          -2.95153200238961    3.32683231272786   10.06384389437669
H          -6.21962144993731    0.19408604344450    7.38970266360788
H          -4.50143153754668   -2.10084739666765    6.28066962496665
H          -5.70550700800627   -4.08255512673399    5.85537375544520
H          -7.73754875790812   -7.57135063727704    4.78114338158977
H          -5.27493244111571   -7.37172664587652    4.15049547952547
H          -5.58800357348222   -5.64282261448836    3.85198622928376
H          -6.93075537133344   -7.84873840464023    2.49509025146537
H          -5.97221785606185   -6.69671069560195    1.83281447057887
H          -7.25886319957950   -6.64279293588134    7.12048600476612
H          -5.68410105079932   -6.12602512407361    6.48609224196748
H          -6.64162177439929   -8.87874348809901    6.46055367647209
H          -5.38513606903747   -8.26749980956021    7.31445639471257
H          -9.68146716603450   -7.54126890304246    3.73200516339050
H         -11.30721399054882   -6.49273051726600    2.12436684725649
H         -12.95491863878582   -4.75931637355009    3.01676875378576
H         -11.65908774419418   -2.94244060517198    4.04043424325417
H          -9.83667019406450   -1.39331216746053    5.10367828956758
H          -7.81301949145205   -0.36258901252073    6.01942106123649
H         -13.14190003138911   -7.00052698775143    4.39764007019360
H         -11.56848013569005   -8.96106507859860    2.64891300019923
H         -16.00562377333790  -12.39919143078312    4.56101366966011
H         -14.31037073064796  -13.46275262533555   -0.32865939790539
H         -11.91590569451195  -11.61316804468258   -0.86355001195179
H         -10.46906757596738  -12.21987264958287   -2.55175978492950
H         -13.86188466809923  -15.22436477197028   -4.55122514850850
H         -14.31125055852342  -14.09088779346343   -2.42179654491963
H          -7.64076971806210  -14.23746813990509   -5.07764713114528
H          -8.71753015511946  -15.18576350196878   -4.06175154808007
H          -7.65030567136915  -12.41724383509758   -3.32080243562759
H          -7.01192002511468  -13.95621051807782   -2.75251037335763
H          -8.63918785486858  -13.46948767826650   -2.29789094455204
H          -9.33347016340390  -11.45606448455309   -4.55218025093033
H         -10.36673190994629  -11.72665235032519   -5.94890391550801
H          -7.33763175689306  -12.14804569236975   -5.94802819895433
H          -8.17957939210741  -10.72535504190039   -6.55213846365683
H          -8.41690388823447  -12.27658363205590   -7.34443053339003
H          -8.32475301213655  -14.49589826189269   -7.41067834912434
H         -11.65621304117157  -16.82081347313781   -8.73868067390884
H         -12.94140371907801  -16.16729481941708   -6.75468106836500
H          -8.09225514575433  -15.68137740124145   -9.35481325889106
H         -10.46117457911583  -17.26265550390780  -10.46997243459157
H          -8.79778811196713  -17.06470848713040  -11.19131761397182
