98
 SCF done       -191.722206646208          0.000811623178
C           4.91589228301904   -4.06466230856048    3.74120783217987
S           3.40567055181461   -3.29821766163991    3.55265280701837
C           3.87331399793465   -2.64884331299337    2.01033124537830
C           5.15777965236205   -3.02302495392093    1.68450407275743
C           5.76041804947732   -3.83654321740174    2.68308817240858
C           7.05898223664611   -4.38711589423923    2.62922522990228
N           8.09968168914230   -4.86351034295264    2.62404107394468
C           5.86265149829989   -2.57456312456683    0.43880456462053
F           5.56376465105556   -1.30808904691317    0.11599771527445
F           7.19846144552285   -2.60603530152684    0.58656128391494
F           5.58303800221764   -3.33894577836276   -0.62088725967413
C           2.92511578021580   -1.94084308857769    1.19675053138104
N           2.90155479850756   -2.12639124533824   -0.10559246702061
C           1.80567783352758   -1.46529805443209   -0.55204357783391
C           1.06726434812099   -0.86522678165341    0.56237123606860
C          -0.13180771212948   -0.16133493292080    0.07514995845805
O          -1.00272339517185    0.38694881529324    0.71071536716519
C          -0.01519846120710   -0.32318713146274   -1.38998847013251
C           1.17082760090994   -1.14361227260249   -1.72486973473978
N           1.29523585362268   -1.27655921838838   -3.06823192899027
C           0.30147908938530   -0.59187281326470   -3.57417616154992
C          -0.54759606781669    0.04320727692265   -2.58164712477873
C           1.81008990016072   -1.10570597014420    1.69096658550499
C           1.61522473516564   -0.57929822814117    3.00247660686675
C           2.62587423136838   -0.26965706769343    3.84339802314130
C           2.49420987155218    0.40810604657979    5.10617251526947
C           1.27861172990227    0.59580517851295    5.73391007210307
C           1.20500106275780    1.38383989367223    6.89269661014361
C           0.09657624222064    1.82206579837120    7.61779075705584
C          -1.31883299893086    1.46066706958545    7.34646259752227
C          -2.06804359778510    0.99432247266692    8.61011363958911
N          -3.11612249679126    0.07781727902380    8.21348692461721
C          -2.04170974125680    2.63166454287260    6.64923807401683
N          -3.35175228353114    2.20441360309206    6.17958655656464
C           0.58567936484962    2.75883886399823    8.59827220940747
C          -0.05169057862404    3.57876178344303    9.45725052056008
C           0.69594853477185    4.56961264129413   10.26895640782345
C           2.18237270628274    4.39814571899470   10.27320778500148
C           2.80750933118936    3.59721322449368    9.37710680310269
C           2.05562932248610    2.80203927871931    8.49296894677611
C           2.41304014978801    1.97486106943744    7.43737656384461
C           3.65397958078766    1.70351379538707    6.82506672032543
C           3.68290330531579    0.94437978209826    5.69729749610291
C           0.66220807747391    5.94378344522824    9.63918219194934
C           0.69588562813574    6.17559661094852    8.31249270071455
C           0.73769091353664    7.49436350350437    7.78296656041458
N           0.63576028019389    8.57442161238006    8.55546532123071
C           0.70789385122405    9.62881864815016    7.73034355770227
C           0.87112688767432    9.20822191661201    6.33096342184814
C           0.95966448459623   10.38052376410012    5.44226019788714
O           1.10390256174669   10.39648150337600    4.23627588419607
C           0.83384779402005   11.50348522151018    6.37923053038081
C           0.68484721982308   11.00888482145022    7.76234293805158
N           0.57458241078945   12.03765920688158    8.62925020400091
C           0.64229485759445   13.12246950855390    7.88561430180729
C           0.80442325627850   12.86164516302720    6.47694986372716
C           0.89116756130251    7.83554174359108    6.35092069516540
C           1.05698909505062    6.89056049278411    5.30047951717088
C           1.23086986790052    7.22289354489459    4.00030629926071
C           1.42226752945331    6.27518901660636    2.95380721663784
S           1.76593961281401    6.82890705687776    1.34387242722734
C           1.88573219244352    5.22923416826399    0.74509941783651
C           1.66687195115379    4.30233242433087    1.71854521250536
C           1.39745433408985    4.88373196501117    2.98963565024973
C           1.10264657635454    4.10412486996190    4.11525581175383
N           0.84277622597485    3.44626863045227    5.02006816329318
C           1.72930182420497    2.82374650120035    1.51989201958444
F           1.68568372775651    2.47418120185253    0.22658000436702
F           2.87242671352836    2.29788550913310    2.01222487539725
F           0.73326073131207    2.18133441717668    2.13654814260584
H           5.12595063355807   -4.64955265941437    4.61511115840596
H           0.16275557212972   -0.54145174230775   -4.64018003243159
H          -1.40357426083762    0.65331803193291   -2.79242268955671
H           0.59663552870979   -0.30335776946619    3.23510727612387
H           3.64422633793239   -0.44098219544511    3.51582561122536
H           0.37745115558345    0.17558510670939    5.31753452208026
H          -1.33360922939357    0.61088015930972    6.65751860002262
H          -2.44244623210149    1.87126701473264    9.16224014322127
H          -1.37424512726358    0.45514513129771    9.26420745031947
H          -3.75448580478569    0.56309535817631    7.58910612309934
H          -3.63301438776160   -0.25516942733242    9.01918674407808
H          -1.38891955694773    3.00219826973553    5.84282751512266
H          -2.19118078697086    3.44838753514418    7.36126516710049
H          -3.24305125515755    1.53220922380638    5.42575475435193
H          -3.86513674215269    2.99663454496405    5.80782241733363
H          -1.12783448279152    3.60647863484038    9.53785029264202
H           0.28451270523398    4.62567622969445   11.28070357742911
H           2.73838917229711    5.00969203103796   10.96542670823470
H           3.88610184377583    3.54234363588140    9.35026275783894
H           4.56105182615704    2.11836534701234    7.23918384883133
H           4.62328787827268    0.75319981574318    5.20028357229815
H           0.69634135035370    6.79021004892028   10.30952870820049
H           0.69793438134330    5.35027922927746    7.61374327519470
H           0.57767228034152   14.09505775375572    8.34171563362206
H           0.88109521860718   13.60414511763941    5.70745469729161
H           1.05690610401752    5.85065814574305    5.58831132764643
H           1.24618327018246    8.26582528874881    3.70978509910836
H           2.10514434553608    5.04386928963638   -0.28778416939290
