90
 SCF done       -167.875520568591          0.000318059195
C           6.07415923755483   -5.33131775755589    4.93354700423584
O           5.72257216323174   -4.08718475388643    4.58396606494225
C           6.44245344725255   -3.71549752130118    3.49760092688960
C           7.27800531421677   -4.76417937529876    3.15036345261006
C           7.03320612370333   -5.79935782275613    4.08000121104071
F           7.61715125606292   -6.99399808676303    4.12082948957237
F           8.14212600166696   -4.79639686815068    2.13975324458943
C           6.22789137867178   -2.41910301958465    2.94113195208748
C           6.88494820115020   -1.93151708439683    1.86549331511929
C           6.65428855992746   -0.64690094683149    1.30220180746054
C           5.70130586571607    0.38019517843088    1.73958890153666
N           5.69021723693826    1.45335528994811    1.00276560174209
C           6.62300135092821    1.23887274835036    0.02923807016170
C           7.25778818286664   -0.07175860836419    0.20412568729654
C           8.22149184688177   -0.30137349236819   -0.84220711732350
S           9.11616334413456   -1.66846661452680   -1.04925852640733
C           8.16568272669733    0.89107658614045   -1.65331287653661
C           7.15822123208865    1.81323720117861   -1.09480008118381
N           7.03215307390173    2.92314501504756   -1.87544199788666
C           7.84410855255695    2.73628721689580   -2.87496194606611
C           8.60156860239349    1.48259802974949   -2.82056967104234
C           9.57601344077696    1.07846348918563   -3.79532256875353
C           9.48324178103982    1.52944565574300   -5.09819146745434
C          10.42554829915071    1.10585349690454   -6.04941399194886
C          10.53545813154854    1.38984920166792   -7.40890197059956
C           9.59603751396662    2.21470627153151   -8.21599078856291
C          10.29993392461773    3.36621599348110   -8.96129747131002
N           9.40328223141838    4.50295937283649   -9.03266012045126
C           8.79506533748501    1.31911499194197   -9.18290160374399
N           7.90274724599843    0.47360807144094   -8.41602273021995
C          11.70274403838145    0.68495240350925   -7.88603876144730
C          12.27995214191498    0.62632744952519   -9.10153575101771
C          13.49361625144129   -0.20387310888295   -9.35242715095223
C          14.02069780655693   -0.91781211926617   -8.15292073413992
C          13.44775019609009   -0.83240932401604   -6.93787344509530
C          12.28627620439209   -0.04671831786751   -6.75141476992079
C          11.50325255871021    0.21653300630743   -5.64337882019439
C          11.58102502091693   -0.21267700052152   -4.29942547792664
C          10.64346828220925    0.20516770880344   -3.41080275316411
C          13.15369547259678   -1.14448037865871  -10.48724101154274
C          12.80035574290309   -2.41913677519490  -10.29754057981860
C          12.46867693513625   -3.33926620952230  -11.34184698188154
C          12.47788948185865   -3.11816212580041  -12.78875733247417
N          12.14117325305935   -4.16097458169874  -13.49648535003715
C          11.88636548052288   -5.14839367547567  -12.59172185986816
C          12.07875762098881   -4.65264057535190  -11.22129436785558
C          11.81309648626289   -5.70194668705052  -10.26863400441784
S          11.90069545342073   -5.59200135490180   -8.63107482900701
C          11.46820418650214   -6.83796736168007  -11.08419003001350
C          11.52208122759573   -6.46937957754807  -12.50934092570080
N          11.20876204186020   -7.53602037813826  -13.29743103133939
C          10.97312514898438   -8.52103288032542  -12.48083290337708
C          11.11499584442259   -8.16992945813633  -11.06494773372146
C          10.91392393657145   -9.05715780703978   -9.97672053867661
O          11.04991840797997   -8.62288898157189   -8.70558431923037
C          10.80998820697737   -9.63941562489545   -7.85848463987640
C          10.50871901336355  -10.77224518873978   -8.59832213712395
C          10.57376190062035  -10.40438495380352   -9.95015776999429
F          10.35517818762291  -11.18456661596480  -11.00730602954957
F          10.21487005756799  -11.97449460977173   -8.10397197050482
C          10.88038646721763   -9.46096000247994   -6.43451679681506
C          11.18224162219187   -8.29989978803781   -5.85598671856532
H           5.59433827120075   -5.77804382398154    5.78026667285986
H           5.47832528525442   -1.83295783431803    3.45257994578210
H           7.63523979330901   -2.53223946546528    1.36995741951567
H           5.04748525155642    0.30747001310406    2.59050967044960
H           7.94772744449329    3.49122823984255   -3.63488209376774
H           8.66945273687848    2.17026419714757   -5.40051383885857
H           8.87262048092851    2.67675854640658   -7.53941573568041
H          10.64148644711670    3.01679362908875   -9.95052680396099
H          11.18018947233715    3.67934748233050   -8.39231742383984
H           8.58108699023685    4.27928675532366   -9.58253451782352
H           9.85977924071372    5.30154696113028   -9.45733261172192
H           9.49776418504268    0.75544090461303   -9.82144020476805
H           8.17618849049364    1.94755549760754   -9.82986195598157
H           8.43269550151128   -0.15442814849421   -7.82073578110906
H           7.31684763622313   -0.08542789449752   -9.02498931846579
H          11.88155474956081    1.15755825543526   -9.95405237142428
H          14.28325804243632    0.46786525275194   -9.72568521430997
H          14.90068144064819   -1.52126712972718   -8.31547438791018
H          13.86263465444423   -1.36155070704336   -6.09298870992169
H          12.38273495243062   -0.86629492610593   -3.99096443417677
H          10.69285845481790   -0.10946534103034   -2.38127133978275
H          13.17592522897016   -0.71378336071176  -11.47812394432073
H          12.76075903019267   -2.82396692850941   -9.29422760915343
H          12.73274784577386   -2.19683839289087  -13.28228795999846
H          10.69894551470916   -9.49187558111009  -12.85266772672971
H          10.66564265066290  -10.35048009776094   -5.85947042593449
H          11.39305279519903   -7.42266573698569   -6.44391075803014
H          11.22431113145910   -8.20120733069432   -4.78621281546180
