106
 SCF done       -177.062199886701          0.000704333960
C           7.65856662319637   -0.56054174869397    9.55546532858666
C           7.87916632657136   -0.44295734231514   10.95509093560321
C           8.81210008089837    0.32142321882816   11.60503529290029
S           8.73750302802937    0.11578730783046   13.30364344312404
C           7.46025920166605   -1.00912081508342   13.17404091367578
C           7.08758209698295   -1.22357404751718   11.86636956797323
C           6.06937069637454   -2.10391839468830   11.37089880979680
N           5.38756857575423   -2.89975920387624   12.19253312783258
C           5.79071030406945   -2.08367527518263    9.98025077058534
C           6.65107490189684   -1.34543201046252    9.10760480036504
C           4.69155178328591   -2.82510164866699    9.46758209311277
N           4.13335341231570   -3.83298159361571   10.15835780979160
C           3.22137777913761   -4.38993020939751    9.34943270652265
C           3.15809977211725   -3.69298958009560    8.06199736294109
C           2.14392193359455   -4.31247287228762    7.19204396339355
O           1.84899288845360   -4.01982174055086    6.05104070108536
C           1.59976614535553   -5.38122923453984    8.04486530198121
C           2.28242706593663   -5.39994593526119    9.34587264509062
N           1.76959022840073   -6.36075567964998   10.14762029796313
C           0.81861959535120   -6.92721350543543    9.43259940063275
C           0.65422157214597   -6.36104550807056    8.12040519740268
C           4.04201844635312   -2.64826645559360    8.14814429576545
C           4.21899802566096   -1.52832832843422    7.28112263145453
C           3.90030640303917   -1.50822541059600    5.97094578993963
C           4.14422835290624   -0.36742266918071    5.12057776817588
C           4.27129840608241    0.90225239955447    5.63513596225888
C           4.64732832335404    1.97855433539511    4.80588839316465
C           4.91693095529177    3.31279162625930    5.08576978460841
C           4.90010128908481    4.06000350996753    6.38292685235850
C           3.46803036523079    4.48232722330777    6.77327201780095
N           2.63273403382752    3.32575645635217    7.04069088809266
C           5.55748542372869    3.29418531951824    7.54192182626412
N           6.87450051676287    2.79927557087876    7.15981198536582
C           5.34610752431084    3.91357380059667    3.84411376682206
C           5.74749688036136    5.16546997187997    3.55877319721848
C           6.31448796414236    5.51368984937218    2.23105728614327
C           6.18692592199685    4.43865562405872    1.19261333246059
C           5.73103244564450    3.20523931839428    1.48180839219697
C           5.32185684009537    2.88299256940344    2.79689576216378
C           4.88008692737397    1.71721308485576    3.38804845621243
C           4.66228904860844    0.41703296952838    2.87188483664071
C           4.30275723609935   -0.58535507013312    3.71158431337567
C           7.79735477300497    5.76599113274418    2.35769439967619
C           8.54009418953503    5.37799760808322    3.40347851060199
C           9.94329820681083    5.64562194459201    3.48228130083689
N          10.62128776082746    6.14108217408630    2.46156048899309
C          11.88905214223761    6.29632107228311    2.90325303399637
C          12.02399908861311    5.88597257474396    4.30410613587170
C          13.40233377224910    6.08331527711312    4.75726587196669
O          13.88614839756623    5.87800292382740    5.85676972228505
C          14.07437093281750    6.61056327908275    3.55379267305495
C          13.11315162689100    6.72852443489375    2.44658781594697
N          13.71811634046260    7.21686619281342    1.33470387419491
C          14.97001735031849    7.40143634816846    1.68178254368968
C          15.26148054580436    7.04379665734153    3.05240326018651
C          10.77310384999317    5.45430505634753    4.69629926110255
C          10.30475545337165    4.97576357477326    5.94684410047299
C          11.12111070379497    4.91611479684131    7.03145322127994
C          10.78121439476737    4.50657739588944    8.35459133121525
C          11.78476624404338    4.56475623172945    9.38300831627710
C          13.09943726538688    4.94667162403750    9.26636046779545
S          13.93297445441621    4.86170107904890   10.75373718071911
C          12.54371385908589    4.31518273128303   11.57844072860655
C          11.46003507809999    4.19615026991277   10.73657671500457
C          10.13535335159697    3.77644739165647   11.06136210800958
N           9.82617460212370    3.38619386771839   12.33883062944411
C           9.20755468953476    3.70904034971359   10.03964547415524
C           9.52094621519791    4.06526724316989    8.72795799787367
H           8.31684152027091   -0.04088912753692    8.87671613075215
H           9.53461275970235    0.98776537553265   11.17978342767367
H           7.05502445642913   -1.43616217574903   14.07010602710905
H           5.54409538670584   -2.88510026993589   13.18373996574679
H           4.70926593479909   -3.52794580152200   11.73539545454008
H           6.52202073179301   -1.47960388202194    8.04577092990561
H           0.24535579712817   -7.73985905371152    9.84415442529224
H          -0.06628033408292   -6.67164616242771    7.38950913440962
H           4.63134319683856   -0.64263032731607    7.74449328387357
H           3.52008797892964   -2.40509975848147    5.50163009319489
H           4.06543444219261    1.08446523399647    6.67678368818508
H           5.47398147397977    4.98075939668311    6.23575814922486
H           3.07168528785247    5.12994588694905    5.97205742091998
H           3.51939545938939    5.07452800475089    7.69179213860205
H           2.47605293958591    2.80537828455865    6.18348827804544
H           1.72850125250005    3.61856346104285    7.39307628717916
H           4.87253562960975    2.50777175210515    7.88290665295473
H           5.69966426987292    3.98806810102258    8.37739102024463
H           6.79588106536711    2.24877540400060    6.30911101384243
H           7.22764403620624    2.18177766976726    7.88454911842947
H           5.75031064523746    5.95377677565614    4.29990293388581
H           5.84965918062283    6.43829045038999    1.86126230637995
H           6.52257700884838    4.69604020422267    0.20043246271315
H           5.66975354459570    2.44845770530710    0.71317999677090
H           4.79203686617562    0.23900788720401    1.81451062619208
H           4.14218131036779   -1.58539848295194    3.33686580138891
H           8.28019630365762    6.26164084997605    1.52808974156160
H           8.08867466992810    4.87157004397902    4.24464140134681
H          15.67884156776942    7.78965430499111    0.97085545804445
H          16.21982995993370    7.12028575823520    3.52761131068290
H           9.27012525776929    4.67149396847232    6.01458303544198
H          12.14351872538602    5.23086136046953    6.88888758886368
H          13.63302362684713    5.26977110635794    8.39483636314765
H          12.60860649310029    4.10326154247938   12.62722987160988
H          10.42421238122944    3.70032306255552   13.08324325016171
H           8.84851075798302    3.31442131284576   12.56928857543553
H           8.20253492888438    3.38218969755992   10.26901851264840
H           8.73908285562064    3.99051733273519    7.98795295073702
