122
 SCF done       -210.883547394295          0.000502749006
C          -0.11048090211351  -12.23598412296967   -2.86247810651108
S          -0.65435626614245  -11.27927227672522   -1.56570444769902
C          -0.84831007730231  -12.04746546686502   -3.99690623155600
C          -0.54403104048551  -12.79171419814409   -5.23841260847069
O           0.35321093328611  -13.61184581330980   -5.31252646736446
C          -1.43282376385954  -12.42836870718183   -6.32533543925271
C          -1.49262207848653  -12.88436487879099   -7.62442985202585
N          -2.48359589991753  -12.22392991011668   -8.26816100714578
C          -2.90429110898830  -12.46840077716507   -9.62466978226440
C          -4.02710004033366  -13.50271546914300   -9.67352468510827
C          -3.07518741204999  -11.35320098459135   -7.41580467278962
C          -2.45141065301552  -11.44249340400253   -6.19070860645227
C          -2.73797199213690  -10.68493389443628   -4.97935612247311
O          -3.57010831490984   -9.79466355297518   -4.96067551224300
C          -1.90233945043148  -11.09120680398872   -3.83207610331987
C          -1.94277008854862  -10.58880438412550   -2.53450196658593
C          -2.78729839532769   -9.69243559256324   -1.81604269161555
C          -3.99093088465633   -9.19834366044998   -2.18964374273092
C          -4.77672937851098   -8.34074511135914   -1.37564642034445
C          -4.42999859510313   -7.72477318892031   -0.08867885154409
N          -5.36280054131354   -6.96996030976487    0.41694777537392
C          -6.39525722311206   -7.01598627182666   -0.47610271626669
C          -6.04824785791546   -7.86389496758752   -1.62042290415199
C          -7.16097019696209   -7.94212703536352   -2.53158237292269
S          -7.27637321840975   -8.90877750085189   -3.85900925520810
C          -8.16430828614986   -7.08745965111704   -1.95149222692155
C          -7.67309250203159   -6.55349584363779   -0.67041699288883
N          -8.63405645732128   -5.80268592053508   -0.06057928543436
C          -9.67318780230748   -5.87000146268166   -0.84382884607417
C          -9.47073382311285   -6.65763049035819   -2.05970724145887
C         -10.44339051475119   -6.84962571425778   -3.09894254566500
C         -10.03288016694703   -7.04130714231014   -4.40462748805859
C         -10.98284511664480   -7.22044530568521   -5.42598671606436
C         -10.85027390195528   -7.42505052273998   -6.80063492658219
C          -9.64212430317000   -7.48745280310141   -7.67127064892695
C          -9.14663854648945   -6.06122503074320   -8.01167951687055
N          -8.71649496986627   -5.36075588212210   -6.81868138170919
C          -8.48518754117555   -8.32230263798891   -7.10141261935855
N          -8.94511976748513   -9.65837906848094   -6.76535408379716
C         -12.19150476495778   -7.51582881875772   -7.33293695258433
C         -12.63212429637467   -7.69436036323460   -8.59337869256732
C         -14.08659317405666   -7.67863203387050   -8.91532698682899
C         -14.98897923390144   -7.57369145146562   -7.73347281570342
C         -14.53317319020124   -7.42762488602542   -6.47516552370586
C         -13.14099365811304   -7.37260767608346   -6.22533038141115
C         -12.39829626725339   -7.19729750530731   -5.07374143898824
C         -12.78694771919901   -6.99662696140578   -3.73027095565692
C         -11.83743215964488   -6.82277661875817   -2.77596716574075
C         -14.24343891050460   -6.53392508565565   -9.89183186315890
C         -14.74904247069149   -5.33874879160785   -9.57169220306788
C         -14.85350156852843   -4.24033608125698  -10.48426825003216
C         -15.52018810508418   -2.98733320043510  -10.14220092610232
N         -15.51796686868744   -2.09087666734209  -11.08922158752405
C         -14.85315816439637   -2.66676692663820  -12.12645125004105
C         -14.42650492950860   -4.04002162189711  -11.78158511477234
C         -13.69225488643242   -4.60569353287238  -12.88483495346930
S         -12.94353285376511   -6.06721884459713  -13.00173686974418
C         -13.70087083664889   -3.57299562631050  -13.89217195318919
C         -14.41644123726056   -2.38477215080262  -13.39425876775443
N         -14.40751484517190   -1.39430196115794  -14.32730149442117
C         -13.71474634254411   -1.85502549721046  -15.32761392038600
C         -13.21611259977089   -3.22480813663261  -15.12471560669384
C         -12.42045719148989   -3.96227510110905  -16.05390017397797
S         -12.74282571408649   -5.61631076667543  -16.41341970278678
C         -11.32768896309592   -3.50380919228751  -16.76612039050697
C         -10.75844829355403   -2.17564885564553  -16.48753276460525
O         -11.21930921907379   -1.40641314057146  -15.65656574642733
C          -9.57705667591395   -1.90387425641112  -17.27952972122590
C          -8.75892227071292   -0.79492890023879  -17.31348350557015
N          -7.77333176465386   -1.01672855822309  -18.21350954514738
C          -6.75356853047664   -0.06698067402679  -18.58139308127780
C          -7.21117060504413    0.80500129590530  -19.74873303433749
C          -7.93894247472978   -2.23852596224587  -18.77523820614236
C          -9.04984825554554   -2.83349729344631  -18.21873445696755
C          -9.60697836331752   -4.15073126350943  -18.49909757839226
O          -9.13563236587391   -4.86821575437215  -19.36505424904954
C         -10.77009478712564   -4.48144102990956  -17.65125551986445
C         -11.44825926890486   -5.69333275067324  -17.57684184543157
C         -11.32830997171896   -6.99197136046804  -18.19127505818656
C         -10.51359933332397   -7.38768461815244  -19.16712418072072
H           0.72456981899396  -12.89970731730082   -2.75109995444303
H          -0.88851751199989  -13.62324868418263   -8.11244201068491
H          -2.04266794322876  -12.82352058379823  -10.19557573649831
H          -3.24688469263519  -11.52517344610326  -10.05837936909211
H          -3.69358684689567  -14.44388923494609   -9.24306681495939
H          -4.32731469117731  -13.67632277571303  -10.70290901340449
H          -4.88982697880282  -13.15205681909561   -9.11240697226220
H          -3.89022846608933  -10.72484390172967   -7.71556527810101
H          -2.40654884162076   -9.44265741258196   -0.83243442804008
H          -4.40624967301957   -9.44619816588163   -3.15529126918737
H          -3.49407299829092   -7.83789870691075    0.42964736610392
H         -10.57117218283259   -5.33109989626684   -0.59480700966889
H          -8.98306408059771   -7.00861244828777   -4.64042015909059
H          -9.94113803689038   -7.95633486342455   -8.61388683731627
H          -9.95040676299986   -5.54012217160137   -8.56027536058503
H          -8.28437306633487   -6.15063460884352   -8.67731133381008
H          -9.51457765012712   -5.10506084705977   -6.24771227030887
H          -8.21385130330446   -4.51489910747808   -7.05827815292850
H          -8.02467718747413   -7.78462922899308   -6.26305676429686
H          -7.72350836478496   -8.42366768241945   -7.88064577545542
H          -9.63610287654009   -9.60351507999586   -6.02277406231083
H          -8.16732148260540  -10.20171368457032   -6.40589448496781
H         -11.95808674827010   -7.80415610443999   -9.43142056855657
H         -14.32998396535539   -8.59832512190878   -9.46818118871375
H         -16.04730295698268   -7.60875660687583   -7.94474211406288
H         -15.21893110887252   -7.35260427253647   -5.64358386673641
H         -13.83682987066065   -6.98630543268940   -3.47658725563210
H         -12.12248296997222   -6.68468192481339   -1.74404633738900
H         -13.86291772460316   -6.71547827995553  -10.88680861632290
H         -15.12352715720763   -5.15363193076118   -8.57243074033903
H         -15.99450527849586   -2.78392610546156   -9.19715578136431
H         -13.60291103121600   -1.28255710620274  -16.22969084546811
H          -8.82545275001848    0.11469721005228  -16.75025692523647
H          -5.85001010255272   -0.61684973915515  -18.85726410002054
H          -6.53146609221412    0.55750370633440  -17.71236682656873
H          -7.43385699401996    0.18931374001343  -20.61682342374786
H          -6.42954886606011    1.51147774200671  -20.01282044799215
H          -8.10676369017227    1.35942573390067  -19.47897062487801
H          -7.26601204662308   -2.62078004847563  -19.51684237439302
H         -12.02764412199021   -7.70766162108777  -17.77115262269373
H          -9.80531925261149   -6.72525109219752  -19.62934440546788
H         -10.54640417536260   -8.40555169805297  -19.51768349845436
