100
 SCF done       -192.656200713174          0.000925163784
C          -2.06176359664296    3.21342346727480    0.05974283107506
C          -1.78816577561079    2.34652175251399    1.03235561186478
C          -0.93165637791903    2.63250870242792    2.14831995433404
S          -0.15068490935585    4.17719382963588    2.30093237967819
C           0.63555295578129    3.69432146635918    3.76569430196297
C           1.52178693510806    4.60890470226695    4.42615107579484
S           1.07655489045402    6.25708310271495    4.68235982482110
C           2.57071148774601    6.60746772326768    5.51407900517458
C           2.71583701322111    7.95745001233616    5.94536390864986
C           3.85744176565333    8.53667855717026    6.38391335743080
C           4.00899710886617    9.90162982650255    6.74891520748027
S           5.64062221532032   10.40724612814763    7.13083834561377
C           5.16516203402687   12.05709754345191    7.39138004208907
C           6.11214477228978   13.07967040806250    7.71547719456837
S           7.35273468926296   12.81147914209881    8.89642647903562
C           7.96858264217438   14.42973308223635    8.70367471680823
C           9.13518128216595   14.78805072787815    9.44643909849947
C          10.09061591747219   15.62764069821912    9.00002289368008
C          11.26981162143555   15.94796498954776    9.72833313676031
S          11.43050974066865   15.59711374538251   11.43235332419364
C          12.98876429783826   16.29341783092757   11.47379211169562
C          13.39139831379607   16.77046470726332   10.25773753312611
C          12.40776755526593   16.57035339873466    9.24294640339838
C          12.62186978256263   16.95361373376909    7.83515205307822
O          11.83750018124151   16.71961429933052    6.93181527314321
C          13.90006775166968   17.62314753132420    7.63465526687521
C          14.43112340483082   18.13763017539722    6.47234969371969
N          15.65848495548283   18.64278874572415    6.74120208437636
C          16.49797389486255   19.32965684903796    5.79241801224758
C          16.17415304293162   20.82168464795092    5.75322103701599
C          15.93678133690234   18.47748416635968    8.05593658900529
C          14.87167973328680   17.84188770635154    8.65607761706924
C          14.69737157974473   17.42576986270129   10.03842982517087
O          15.51658001103445   17.59216243213225   10.92340320333325
C           7.19926587866624   15.14824935921180    7.80178903776807
C           6.16823577571567   14.36165687631521    7.21067052791178
C           5.40287392809613   14.82750322040922    6.04117259194928
O           4.78483989664257   14.08406297444360    5.31315022889605
C           5.55272928866056   16.30205546779063    5.75764681790688
C           5.93191644804386   17.11014152208640    6.99204002882660
C           7.21452070982588   16.60793400869738    7.62143381694984
O           8.09194801910031   17.35039381910957    7.99483697295975
C           3.80517785609930   12.18600199694413    7.22694682186973
C           3.14697580464769   10.98514883917013    6.85879040323335
C           1.71000918140427   11.12700892986704    6.68832205677901
O           0.88111823853818   10.32531418707055    6.36250226931431
S           1.26413364680733   12.84145037769585    7.06871250544476
C           2.95365564632420   13.34806951414100    7.43160673036913
O           3.23958390686815   14.45145118741915    7.79966763760867
C           3.34947136993676    5.45873828666201    5.62105991646179
C           2.76339852287103    4.34023923617629    4.96506531037276
C           3.48675049471303    3.07552020620189    4.74759171954427
O           3.20212370234178    2.28965273910222    3.87262672490884
C           4.68862583500053    2.87937667175085    5.64300504034046
C           4.67667985543367    3.79859305626831    6.85845036980316
C           4.56584571804587    5.24105860878487    6.41897976429003
O           5.38632388339165    6.07791839939314    6.72036296582352
C           0.28917237829869    2.41128887051523    4.13772238596372
C          -0.60119597614444    1.79969207767531    3.20311130466256
C          -1.09706780839828    0.41673343170694    3.35043542463736
O          -1.85039584258074   -0.13295197084449    2.56469432630060
C          -0.58459833019140   -0.23373549845799    4.54647799137899
C          -0.79898016987091   -1.51683948683787    4.99875301674539
N          -0.13678691414942   -1.68043819684693    6.16921669522408
C          -0.05594576106541   -2.91164951416911    6.91380753073139
C           1.14373985446180   -3.74502805078106    6.46725193987398
C           0.50976177347989   -0.53448103071720    6.48595235082259
C           0.25850569803241    0.39958567847138    5.50350778260174
C           0.72773213838243    1.76760579258567    5.39245142320498
O           1.39581053515202    2.32010836007600    6.25279704438339
H          -2.70844495145734    2.95325861484005   -0.75901111638170
H          -1.64644090466831    4.20926873297154    0.05408204058400
H          -2.20802420101937    1.35022513832444    1.03137191656210
H           1.82016390108511    8.55627315081978    5.84855367576919
H           4.76159527203517    7.94764327135262    6.45353145067744
H           9.27712202297706   14.26568598273459   10.38584096558197
H          10.02093706736074   16.08182903780602    8.02187666880521
H          13.54783053461569   16.32575711042549   12.38858919698305
H          14.00735617361257   18.16300225043877    5.48804925122744
H          16.34048194913996   18.88719640935741    4.80531271376638
H          17.54188155669802   19.18051198250603    6.07997579537700
H          15.13465174466749   20.97545481879244    5.47380873491855
H          16.80893444281402   21.32104681229689    5.02678851788271
H          16.33945671702884   21.27071907651805    6.72962477565910
H          16.86156843511952   18.80467139636734    8.48816280223326
H           6.32856490723314   16.40220724315835    4.99120923926016
H           4.61929917389713   16.66461300525330    5.32377095505884
H           5.13816251260768   17.01645269603035    7.73906782000685
H           6.05028231220555   18.16601902608275    6.74512671447065
H           4.71995637404688    1.83145831422745    5.94576863219578
H           5.57855101783575    3.06851924031465    5.03400980418802
H           5.58373679122132    3.67195038646153    7.45092425668250
H           3.80636024075715    3.55901539194957    7.47464721287493
H          -1.38034204355329   -2.30249137598202    4.55852364185019
H          -0.98035342707941   -3.47315831572758    6.75692504686856
H           0.03077139136927   -2.67075782291590    7.97662798897949
H           1.06308856235820   -3.98833050567551    5.41063218081046
H           1.18726380879311   -4.66914923802638    7.03652412084624
H           2.06741887025075   -3.19337163825090    6.62442913669878
H           1.09980231099750   -0.44071583452309    7.37605699111394
