126
 SCF done       -198.202014440032          0.000296594423
C          -4.92008749026087   -2.65672606804639    7.97085321924769
S          -3.38830984796201   -3.37981762787730    7.71271451902586
C          -4.11537082303027   -4.96608548794466    7.59262108917943
C          -5.48131264258512   -4.89388680267025    7.80439899114483
C          -5.93821961698575   -3.56247872759589    7.99463890847008
S          -7.61806141139917   -3.02722930497529    8.12397023525354
C          -8.12026882881585   -3.80346174054740    9.70450509390270
C          -7.32736203188855   -3.26286521895630   10.87703302644221
S          -6.54974431437606   -6.29451913223925    7.83040294548855
C          -5.78369368827918   -7.35603608205916    9.12354386032422
C          -5.63051834339808   -6.64904855431334   10.45388573924265
C          -3.35378110397349   -6.10532717002585    7.22814769930577
C          -1.99875071206766   -6.13784407543607    7.17002488841999
C          -1.20209794920096   -7.24806906614798    6.78262438577485
C          -1.66464816804210   -8.45578577300340    6.36110873865607
C          -0.85576119950356   -9.55413657447066    5.98473653111568
C          -1.43845603088172  -10.82946186258689    5.55069204043797
N          -0.57341082569833  -11.74463511238070    5.23109092472298
C           0.64648748274660  -11.16453041565311    5.42512818875740
C           0.50974693841200   -9.78273354963085    5.90692625888718
C           1.81980119335419   -9.20626326248809    6.07346593277297
S           2.19672999789701   -7.66147003661500    6.51313441710069
C           2.74230548048833  -10.25952227486195    5.71279158392298
C           1.98151145127381  -11.44700786007165    5.29988117087299
N           2.81598371790299  -12.44719066949975    4.89673938674379
C           4.01525511922278  -11.95317577395055    5.00116066781041
C           4.06893325982600  -10.57989091834833    5.50941338333160
C           5.28968233241682   -9.85390382026936    5.73247468723915
C           6.41242804330374  -10.15340639938421    4.98408757090204
C           7.60449036947362   -9.43573281250194    5.17797372771922
C           8.85082307893379   -9.51963098085746    4.55870471512951
C           9.33913434847349  -10.46519852659450    3.51801178524319
C           9.66165130554832  -11.83241566038294    4.15872340422320
N          10.81024927293669  -11.71627541343400    5.04470748461200
C           8.38302627457735  -10.65354933169464    2.32888859393987
N           9.11647171598021  -11.23928240023998    1.21850591142059
C           9.70644837965846   -8.56898987429635    5.22335529723312
C          11.00998140492022   -8.27910602396460    5.04742358577859
C          11.72170305952108   -7.34425045339076    5.94954396590284
C          10.84380203051400   -6.61740042120936    6.92044156386372
C           9.53375560867131   -6.89835886837146    7.06579304056359
C           8.92274221891378   -7.88291341373292    6.25572379270164
C           7.64349166272427   -8.40791951759979    6.21037663179793
C           6.48429667618829   -8.13241333630739    6.96787564953009
C           5.34389186463066   -8.83009119520214    6.72868339126368
C          12.71537880558699   -8.10211048854605    6.80580814400503
C          12.57703171955335   -9.39359930517860    7.13101087336239
C          13.49180569104260  -10.11689168538020    7.95758114065986
C          13.28457472665547  -11.52472886661752    8.29986158977038
N          14.21476055193125  -12.04712459824311    9.04722657208255
C          15.11122323082257  -11.04195628452285    9.25354598945038
C          14.68512527736846   -9.80454452556165    8.57572451011003
C          15.65676370526753   -8.76589939465785    8.82489927563230
S          15.61857908894986   -7.19012792775412    8.34196535745466
C          16.66434637443827   -9.39428874013853    9.63749265709548
C          16.29940388728754  -10.79137331507802    9.89099609777491
N          17.23895070493987  -11.40563618185566   10.66751469659549
C          18.12578106100289  -10.49257834655586   10.93098140559916
C          17.83477060113072   -9.17903845443505   10.33899315238858
C          18.67509130780313   -8.04076276283689   10.41893841415508
S          18.65759445864109   -6.86153583550229    9.13423939174772
C          20.01751512712839   -6.02230313580283    9.80882943831212
C          20.41072492799202   -6.59817273884422   11.00844685243467
C          19.64889336103747   -7.73012206573362   11.36007438932936
S          19.91260944554262   -8.60508809293939   12.86721537258840
C          18.22605883507796   -8.67440258640429   13.58733976657691
C          17.60549828656687   -7.30220016803609   13.74516039629190
S          21.79293252678198   -5.97288253260394   11.90972215522211
C          21.00660523082877   -5.50703320863184   13.50831766186692
C          21.82231890375835   -4.41191848843923   14.16453127781091
C          20.58608701027100   -4.87864791784918    9.18632073988658
C          20.13307601316430   -4.34313601668535    8.03358512345687
C          20.67840990492610   -3.19086562369815    7.36455191938639
C          21.77167131172170   -2.51562806080474    7.72298997392567
H          -5.00041947565292   -1.59478392988650    8.08879079304384
H          -8.01323854054850   -4.88054869874185    9.59229631371854
H          -9.17741721874233   -3.55699546752087    9.79353664404535
H          -6.26691489857602   -3.47913131893130   10.75939486018760
H          -7.67351521186368   -3.71924152347888   11.80262874878370
H          -7.45083329120852   -2.18496689404809   10.95278053948656
H          -4.82324076049966   -7.71821367778023    8.76305342602976
H          -6.47680178920895   -8.19361820549051    9.19831393612460
H          -4.97896160874761   -5.78246831499198   10.35452573172780
H          -5.18518942315906   -7.32989771184188   11.17658809795228
H          -6.59465033914186   -6.32213637982701   10.83566816076512
H          -3.93229884245358   -6.97499146561123    6.94845350008863
H          -1.46180349284489   -5.24214806213644    7.45724087601101
H          -0.13189351875855   -7.10426459759908    6.83388813962986
H          -2.73051498112029   -8.63310767479521    6.28856972207496
H          -2.49527172049269  -11.02893325892549    5.49202531117246
H           4.87063173149835  -12.56108834693083    4.76206375280796
H           6.36318191268678  -10.91916663715619    4.22714784908327
H          10.27786406572056  -10.07197991185025    3.11248029727253
H           9.81171576954979  -12.55142554946578    3.33978659474963
H           8.80809811452262  -12.15724489712044    4.75897174467107
H          11.65527348669108  -11.57443509728576    4.49943786867123
H          10.93076711008329  -12.57564857432838    5.56972088893620
H           7.91754189021189   -9.68371510119600    2.08680116279366
H           7.58949600870039  -11.35574591855225    2.59011424919015
H           9.78882534698397  -10.57569455553604    0.84736810267866
H           8.48448075936787  -11.48995868223805    0.46674345672607
H          11.61074200585983   -8.76525527828372    4.29188605909022
H          12.29267615703978   -6.62019453843352    5.35288943814387
H          11.33320196759270   -5.88320624317278    7.54139702275689
H           8.93581591141628   -6.37305517372510    7.79631492771195
H           6.51533352323945   -7.37157819941686    7.73333779190853
H           4.45360628437511   -8.63291876736408    7.30288011001541
H          13.53679840906800   -7.51995778184239    7.19917512896789
H          11.74328333338176   -9.97159568050753    6.74946892163890
H          12.44192305609510  -12.11057206446415    7.97512173472931
H          19.01223172578433  -10.73640463532532   11.48981458366629
H          18.38811195633775   -9.14921611049752   14.55470804729650
H          17.60798496751744   -9.32712730925062   12.97235670156516
H          18.22532824546978   -6.66832410050832   14.37573741181155
H          16.62466080159044   -7.39834861186794   14.20648445692154
H          17.48102298282375   -6.82004921849998   12.77658363869895
H          20.96574859797435   -6.39770795353037   14.13359460461431
H          19.99953277728000   -5.16475147252331   13.27365157984614
H          22.83618253038866   -4.75640427680272   14.35384617283821
H          21.36665657983181   -4.13058803731996   15.11187481224677
H          21.86973310507248   -3.53411680673737   13.52409696078678
H          21.43157644003825   -4.45102249966669    9.70605507776008
H          19.27805139492905   -4.80795771385364    7.55708349597684
H          20.13236365923924   -2.87123011705224    6.48600853715407
H          22.36571654474479   -2.79026581835957    8.57737141560029
H          22.11153462137141   -1.66313619674020    7.16116763914477
