100
 SCF done       -156.541519756246          0.000199669313
N          -1.43744461492637   -0.30340124179840   -0.74802606475160
C          -1.32622997554263   -0.21403419228161   -2.13383071416762
O          -2.02060610209697    0.47545943031652   -2.83676114286499
C          -0.22380442268436   -1.11391702541358   -2.48455870316092
C           0.27899334195260   -1.69306558418243   -1.36963585958126
C          -0.51711265634346   -1.16511408155205   -0.20259367787775
O          -0.41757397762328   -1.40146744431106    0.97527046534529
C           1.36474983258310   -2.63593161110892   -1.24850085146939
C           1.66546451228345   -3.23113362626776   -0.01184471390070
C           2.70049285976017   -4.12775961453531    0.07064325105427
C           3.46615531164308   -4.45606497444576   -1.06233753061659
C           3.17939140575340   -3.87033955902089   -2.28989955644452
C           2.13744011566679   -2.97247220410932   -2.37315316175613
C           4.47171717619004   -5.41825441774983   -0.67547962530713
C           4.32282758114670   -5.69420782111965    0.69618986039796
C           3.19519732295712   -4.87913512025747    1.28362926901663
C           2.09524593699089   -5.77501148606198    1.88072748561191
C           1.53851453392783   -6.77570709232542    0.87535973250395
C           3.70984036804791   -3.90789182054828    2.36346916197785
C           4.80902559777390   -2.98345600842005    1.85396991862017
C           5.14648080358053   -6.59391123812375    1.32360200948042
C           6.15527206667602   -7.24066233158236    0.59243189694441
C           6.30024210103358   -6.94582221766329   -0.77074328272270
C           5.46831572007443   -6.04790453385682   -1.40785114297447
C           7.01285366826392   -8.19825171382583    1.24742817437692
N           8.25625807593501   -8.53686241803539    0.75423493687883
C           8.81643887348062   -9.45680239409697    1.58528744202828
C           9.95353876002836  -10.23623620147196    1.80415453047460
C           9.69537760769936  -10.97995939956594    2.95541020518940
N           8.43568489859523  -10.66653791781172    3.42739345712541
C           7.88614631159719   -9.72946615378208    2.61120544231938
C           6.75933381956298   -8.93131606025179    2.40349912212242
C          10.49824145566697  -11.94121316155806    3.63732441338112
C          11.78716520910123  -12.21730409162253    3.35967734431519
C          12.61373704230164  -13.18182109944326    4.04931844543638
C          14.00857569192225  -13.08246435716547    3.92368729075828
C          14.82452414211350  -13.96474373323994    4.58999967852603
C          14.26527927399295  -15.01055264429029    5.34463092657267
C          12.88935953554409  -15.13167338953438    5.46491936830970
C          12.07799607430510  -14.21248750288058    4.83118790607146
C          15.33811835511700  -15.84492810845243    5.84811767839882
C          16.55780657367186  -15.31073799902602    5.40628035748017
C          16.33489735562268  -14.02509907254096    4.63977202713773
C          16.91803002889686  -12.88846126374060    5.51408399261482
C          16.65239874180997  -11.47158463927837    5.02339866008029
C          16.97284243630218  -14.05375572385761    3.24470911901189
C          16.49840534403405  -15.24308125590983    2.41745000142667
C          17.74899451903335  -15.92486079415138    5.71903023769536
C          17.71431685137157  -17.08220759168536    6.49369455457285
C          16.50930286702608  -17.61263742711188    6.94168405628838
C          15.31312632692909  -16.99965254725036    6.61380625463914
N          18.93209740809153  -17.72257707454526    6.83854118369040
C          20.08742683455524  -17.05256623757612    7.22482694200401
O          20.22155534254031  -15.86116353744572    7.31943417328515
C          21.09696006934990  -18.11604511454781    7.50308436087044
C          20.54018937689656  -19.30258128122903    7.28681458179030
C          19.12762996310682  -19.09924900823308    6.84860394743581
O          18.31806503827187  -19.93557092289280    6.54781736022907
H          -2.11405517769439    0.20919461294313   -0.20326182645770
H           0.08026927013739   -1.25077058646856   -3.50430829052286
H           1.08102539579857   -2.97975238634387    0.85761647759261
H           3.76250039727215   -4.11348355505011   -3.16568651090895
H           1.91456691231143   -2.51032305185388   -3.32183169546222
H           1.28693056617729   -5.13797088668731    2.24472332038066
H           2.50919260537244   -6.31296540346570    2.73622812023484
H           1.09983418639323   -6.26033685108161    0.02381542189833
H           0.76833872732477   -7.38559978728413    1.34188211789526
H           2.32524273225410   -7.43287563672102    0.51080479361891
H           4.08899381058113   -4.49094295257590    3.20543938705082
H           2.86980432591206   -3.30866310260934    2.71966809473356
H           5.66555227787832   -3.55767248192499    1.50702551687851
H           5.13859503330945   -2.32093263650156    2.65090917397746
H           4.44681166186235   -2.37411211419834    1.02896951963615
H           5.04047667280240   -6.79948388945953    2.37732666367320
H           7.05958909727122   -7.45403089946830   -1.34769232782355
H           5.59013941646287   -5.84467803560086   -2.46156021363456
H           8.69667682017127   -8.09959779246888   -0.03582642417516
H          10.84659292357593  -10.27939564201875    1.21449508755136
H           8.02274650190009  -11.06339078882082    4.25354187491021
H           5.85959295081417   -8.90364294232565    2.98437572245162
H          10.00599697845196  -12.45315989524821    4.45472601652985
H          12.28092542593114  -11.65183757365414    2.58095831080151
H          14.42159342384572  -12.30411403495759    3.29870904755056
H          12.45702853347037  -15.93814695622155    6.03864603502292
H          11.00645359029635  -14.31353913463488    4.91308145062957
H          17.99589872698484  -13.04691698691516    5.58938381852508
H          16.50032002942529  -12.99420940369199    6.51874885398796
H          17.05106806663583  -11.31519636487453    4.02446782085248
H          17.13643064382750  -10.76377445308216    5.69307590044539
H          15.58723831230611  -11.25651358454630    5.01789567912051
H          18.05868804673484  -14.09360308564112    3.35386274505237
H          16.72208304518333  -13.13227783852154    2.71765894748365
H          16.75586495858389  -16.17980735058337    2.90670901308945
H          16.96420171538492  -15.22767964336437    1.43453903896074
H          15.41867551339038  -15.21140806017188    2.28835616638270
H          18.69251355643094  -15.52668745613875    5.38159774101086
H          16.51148816614684  -18.51001958500011    7.53949835298622
H          14.37900156519366  -17.41612431818992    6.95834259904145
H          22.09317597513881  -17.87875141357842    7.82658176316451
H          20.96589790731603  -20.28373839644586    7.38404150010354
