113
 SCF done       -206.342442236447          0.000779258660
C          -3.57294307234619   -4.42960044274242   10.28718389095987
C          -2.87303227647779   -3.48041610051752   10.88377034628451
C          -2.12991187344205   -2.39887808528052   10.15965272092615
S          -0.49808487998143   -0.09153169557475   10.16567034741781
C           0.21264355096649   -0.86581556529935    8.77601301311533
C           1.27015694667004   -0.28206378273760    8.05732573563123
C           1.75771113631506    0.97405743087032    8.24012910627954
C           2.86698285518949    1.53469214662350    7.50885853200071
C           2.85615593179643    2.90264331985879    7.22066027448250
C           3.82658876898402    3.49388372465653    6.43365089272607
C           4.85310881784537    2.69369857552712    5.89610666196025
C           4.92514816403812    1.35624280435355    6.24827338157561
C           3.95883825950490    0.76185087193648    7.05211624560654
C           4.11635690716690   -0.62737129106407    7.45750455659866
S           3.95830315982345   -1.04794970409153    9.13684886922658
C           4.08370698443026   -2.74189700022477    8.76659651735537
C           3.79569818348920   -3.71155741137134    9.78462241410243
C           2.91344320987690   -3.45411955463776   10.76004504627533
C           2.50362083390085   -4.39591434615877   11.78542818134954
C           3.42921702985145   -5.26468797999666   12.36142290645136
C           3.06128414156523   -6.18234175049761   13.32920839557371
C           1.70800891843897   -6.27913221958339   13.69766020248257
C           0.78597349219643   -5.41646878867806   13.12866605485919
C           1.16294509953421   -4.46311163349267   12.19084640318696
C           0.09372098813694   -3.66785244163154   11.56181417793583
C          -0.07575127235551   -2.35706030018764   11.67182642702156
C          -1.22996060423559   -1.58154301658432   11.10960012255678
S          -3.51521561981763   -1.22376703181443    9.48860085870164
C          -4.17470743115807   -0.66353080850586   10.96396111415745
C          -3.36433170853087   -0.57745309635099   12.07344884555364
O          -3.75379816239220   -0.14841739095080   13.30913351713355
C          -2.66527240558220   -0.31241108030952   14.08577039781400
N          -1.63402716482661   -0.80887574866617   13.48492116008227
C          -2.02462261682470   -0.99429900953216   12.19664225061665
O           1.33441304874466   -7.26664650836913   14.57732183802074
C           0.52133824798253   -6.90708804082768   15.61030334444145
C          -0.11384443888279   -7.80955513489663   16.35208354127462
O          -0.84812599896462   -7.48320368923590   17.46888337601419
C          -0.27503917477046   -6.62507921571176   18.37044433575114
C           1.03030078908161   -6.58782249083260   18.62294823650008
O           1.57219310238706   -5.69739016667075   19.51379369524144
C           2.81152696468338   -5.21208340042240   19.26642662636121
C           3.71392244130105   -5.52099800474600   18.33298197809387
O           3.61319895280427   -6.56326716846238   17.43428833647276
C           3.73254197886470   -6.25989433421036   16.10513373944103
C           3.98241393954038   -7.21542590818782   15.21416785957687
O           4.01715680012078   -7.01049440282841   13.85913113066252
C           4.32113770408627   -2.94587035362847    7.42848556997605
C           4.33469587786403   -1.73972721643814    6.68597822921525
C           4.44917716992873   -1.73915207390887    5.19294651856850
C           3.92790253885702   -3.07360722104352    4.65145257242987
C           2.43808218843010   -3.19312779837720    4.85042859844597
O           1.84345868764259   -4.19521461322678    5.12953258974344
C           4.69398406979837   -4.22907258654806    5.29978502887716
C           4.40489263565052   -4.30247619048633    6.79992652994484
O           5.74231054315308    3.26380665511914    5.01768583212326
C           7.06969672045153    3.03100646222340    5.22824792667893
C           7.98009428828677    3.26541909060056    4.28758926719888
O           9.33315824434711    3.15131177134300    4.49791016289170
C           9.84238171627856    3.69392574015295    5.64936876916069
C           9.37759774436397    4.81133979845163    6.20121423663385
O           9.89670324219914    5.31600191943859    7.36459305862025
C           9.05950144739115    5.94004511976280    8.22758488208899
C           7.76912081393360    6.26491142086302    8.12730044745495
O           6.99949865506813    6.13570079954784    6.98935453161325
C           5.82198451767823    5.44933343433052    7.09869370791605
C           4.88618699708428    5.56105778500815    6.16007838802435
O           3.72559023281151    4.82980411810230    6.15046955639640
C          -0.30681377948581   -2.11758206082210    8.42754559514493
O           0.19468217697365   -2.87602028267136    7.41312662274437
C          -0.54832968205011   -3.99089429826763    7.41987816711423
N          -1.46560748060509   -4.02653768694683    8.32739542171176
C          -1.35100035408888   -2.84648991838991    9.00478048668646
H          -4.09257116549493   -5.17750264457298   10.86089480308839
H          -3.63176503926006   -4.49937541597295    9.21597655701834
H          -2.83423151722180   -3.41576546899118   11.96328516050141
H           1.67446965944246   -0.90471079106681    7.26989541051169
H           1.25211729621824    1.62686484450600    8.93895905575657
H           2.05606071366729    3.52181922432356    7.59564607882511
H           5.75200014742837    0.76598226479438    5.88137373180915
H           4.24738157594885   -4.68901652949269    9.68483651757852
H           2.41422686107886   -2.49498765000139   10.76174212363075
H           4.46824877597989   -5.20911568973618   12.07732017288024
H          -0.25358569540599   -5.50719642684556   13.41012605895095
H          -0.61940566315296   -4.27065260605783   11.01229878000383
H           0.59827604956878   -1.75345305722784   12.26357019787373
H          -5.21875826815305   -0.41171571813244   10.98077961476787
H          -2.72040955977165   -0.03192738286894   15.11752610171792
H           0.48752283877620   -5.84989943346051   15.85268521618602
H          -0.12667420210225   -8.86107678961260   16.10782626054921
H          -1.00070693133782   -6.02602316970358   18.89974167874144
H           1.71914182797928   -7.23249410788292   18.09743416238580
H           3.05411109420300   -4.44028045923369   19.98273042261033
H           4.63145038545684   -4.94753448974189   18.28330922038312
H           3.54217361953168   -5.23118123252001   15.81722842819808
H           4.19849063797170   -8.23269461525502   15.50359221309663
H           5.49629481014703   -1.62361189648858    4.89701657134350
H           3.89226924682957   -0.89718735598570    4.77409060307254
H           4.07944711618260   -3.09645469731486    3.56381188404784
H           1.89777791386807   -2.23813031385136    4.68687626489038
H           5.76174127004945   -4.07691752159386    5.13001087491325
H           4.40583094136280   -5.17210514088377    4.83411368012304
H           5.17496771161890   -4.89821782896471    7.29686668580104
H           3.45021434078757   -4.81222101908072    6.95821243857124
H           7.35366636525639    2.73003019367519    6.23116050777668
H           7.71485997995516    3.52771435701191    3.27441128664967
H          10.70117059998430    3.15755352248296    6.02419283026110
H           8.53929658586312    5.33935826044101    5.77114291352245
H           9.58544589115657    6.18678761502729    9.13854769015450
H           7.27333225154842    6.70914053175000    8.98150831882453
H           5.72593445269116    4.76610195314879    7.93629818558210
H           4.96873736057262    6.26129259062480    5.34279990876346
H          -0.33611813983322   -4.74921085146264    6.69361108567672
