102
 SCF done       -178.827822280483          0.000653577142
C           0.49904693131547   -2.85800854106530   -1.98397482404230
S           1.73656527449932   -2.58826772894772   -0.81432841477896
C           1.82988995746756   -4.27646996322723   -0.32929812576742
C           0.91197559879633   -4.98644728909566   -1.08239499100101
C           0.17471018576553   -4.17893684009176   -2.00067193963309
O          -0.67892081025945   -4.99619110193267   -2.66490060040736
C          -0.42628412759545   -6.21955963552456   -2.13406789852678
N           0.47624652688420   -6.27981146442606   -1.22230956588304
C           2.71685700861597   -4.74920855439433    0.65872275966820
C           3.58219224152600   -3.96082110904947    1.34900597406572
C           4.46355039559359   -4.47593685908842    2.33016197344774
N           4.38401945667070   -5.73319889311272    2.75880618151200
C           5.28244888902452   -5.84523755517235    3.75044040048323
C           5.97371998993343   -4.56807711800690    3.99093388635725
C           6.96123565711100   -4.70244394050050    5.07298036504200
O           7.69625284728875   -3.85823858648933    5.53751237893736
C           6.82743306479518   -6.12343160425365    5.44702850401216
C           5.79295619075563   -6.77993912368191    4.62295040838488
N           5.68082667147255   -8.08963030324633    4.94870596351696
C           6.56712454500762   -8.28319385301945    5.89753103176085
C           7.32280234902769   -7.10188690685719    6.25012534983233
C           5.49251912883804   -3.69183238454288    3.05696194294725
C           5.92224384802141   -2.34868674044183    2.82637647517825
C           5.94335359876249   -1.74221462784531    1.62325054849416
C           6.48124018427548   -0.42655598894455    1.36925852671891
C           6.92978548504134   -0.12375881042602    0.10076642393029
C           7.57321689299753    1.10207863881136   -0.15124824768149
C           8.18338295791172    1.59724796459991   -1.30054580343319
C           8.26068431903808    0.88346469313381   -2.60737125724419
C           7.86545309271222    1.76708694961361   -3.81657634015007
N           6.63938621107178    2.51876371461166   -3.66204722594564
C           9.65513073936021    0.25675648153024   -2.84295040640486
N          10.70300020550280    1.26156361585027   -2.85401270842175
C           8.72645781272558    2.88899498238362   -0.95698399481157
C           9.45420709911842    3.77906789843345   -1.66244941252955
C          10.00097944208247    5.00600574688667   -1.02446158535361
C           9.47051028598311    5.29912939817495    0.34369002429840
C           8.74689415444053    4.39896225111758    1.03864296980160
C           8.38284004444485    3.16712532515744    0.44846173841790
C           7.70073696020809    2.06569524907505    0.93058213872652
C           7.17881429024725    1.75443603179208    2.20688675578861
C           6.60045059976019    0.54451430792550    2.41705297289138
C          11.48835545937060    4.78828217117705   -0.83040888076498
C          11.98474442710282    3.72804893040607   -0.17635588197951
C          13.38424601727938    3.54691037465596    0.03994639320080
N          14.28295080897118    4.39747195600173   -0.42876136204831
C          15.48083939585770    3.93201769998310   -0.01562776310152
C          15.33550358985271    2.70465953284307    0.77574557435381
C          16.64841328345033    2.22040060404194    1.21830537923227
O          16.90985158620458    1.24769214862014    1.89702952659808
C          17.57289863910500    3.21302276943665    0.63637949763577
C          16.81818217130807    4.24065633898528   -0.10478437528504
N          17.65904190891499    5.15560054148147   -0.64736566852730
C          18.86086961185115    4.76395832490581   -0.29670774009179
C          18.88021890392163    3.55751258357747    0.50304679419865
C          13.98739491313258    2.43219412681614    0.81010670288886
C          13.26535510558569    1.37225982450790    1.41305176386807
C          13.83774717144538    0.41940158680245    2.19496240803156
C          13.08777543737951   -0.62614290457204    2.77854654076183
S          13.78929352464724   -1.76983478337514    3.91016638905698
C          12.30863232161329   -2.65201171425859    4.16384554376995
C          11.31804271004368   -2.08277357089620    3.38137428639920
C          11.75570483056592   -0.96372312728473    2.62910577468165
O          10.69870439205798   -0.51873403770617    1.90260684707716
C           9.69667020887169   -1.37713067755232    2.23985288405298
N           9.99113278651312   -2.29627598298499    3.08266330221667
C          12.23532171980036   -3.75693412755995    5.06853215625633
C          11.08759828302818   -4.36114407219019    5.38282180814273
H           0.11032524389856   -2.04358978085153   -2.55954871255334
H          -0.99050168378052   -7.05201220031440   -2.50575203275512
H           2.69829203803802   -5.81202038416010    0.85749686872242
H           3.59772942006632   -2.89531313354708    1.16431646427551
H           6.68003041850850   -9.25639306906812    6.34326039045518
H           8.09307509921119   -7.05292845228817    6.99429957236536
H           6.35805193125111   -1.86228861647054    3.68881780260909
H           5.64309980387147   -2.29725402489814    0.74332297375035
H           6.83046400205203   -0.85609933937846   -0.68910437045080
H           7.55090200036389    0.04802545874265   -2.56617044460332
H           7.74559312785163    1.11563146011791   -4.68702304493450
H           8.67071293731376    2.46739547305789   -4.03548139334009
H           5.86199856702970    1.89525163543581   -3.47035363783590
H           6.71573248503154    3.16409632846586   -2.88258657137426
H           9.64028668346099   -0.22818781482330   -3.82249591989780
H           9.81409485179719   -0.52264582605627   -2.07950348943772
H          10.94872068468940    1.52893546035940   -1.90728738952906
H          11.53888094081044    0.90078246361769   -3.29803982372188
H           9.75975196645894    3.59137078784138   -2.67970023339736
H           9.85837080299505    5.86581712597100   -1.68667509774865
H           9.76322137021317    6.24225887868885    0.77726154447222
H           8.41619245839545    4.61524417420768    2.04424709184010
H           7.25399400313101    2.47896948876533    3.00427986967419
H           6.19980444164594    0.29861115212557    3.38787062377990
H          12.17075802697501    5.53770270026229   -1.20145684660003
H          11.31778095489505    2.97927148078211    0.22902576020624
H          19.72579768427597    5.32633503120026   -0.60331408156886
H          19.75854463148421    3.07638223516889    0.88584723683885
H          12.19751336378154    1.33164293831941    1.24444430274419
H          14.89950866609074    0.44434380850033    2.39838143808470
H           8.74003357491282   -1.22989469890104    1.78115506532694
H          13.17628577487488   -4.07290782886583    5.49905843964716
H          10.14748774337963   -4.02845420115580    4.97682456308326
H          11.06534058115808   -5.18953095278109    6.06865282995759
