98
 SCF done       -182.612078848299          0.000674866456
C          -3.52375367830799   -0.18749473397523    4.11088864133758
O          -4.27737615751463    0.12104785303682    3.01856251497731
C          -3.84022022576606   -0.31481169632063    1.80610418094068
C          -4.52500249911363   -0.06360643921721    0.65294409101522
F          -5.66403614411940    0.62225906207217    0.55255260737844
S          -3.78279979299191   -0.71599012159905   -0.77205118610651
C          -2.38360498343298   -0.86238279474276    4.14268763478149
S          -1.51490819509652   -1.55343597778167    2.74496170437563
C          -2.65865433050364   -1.05907858728945    1.55035242191650
C          -2.48572111908547   -1.35627739424738    0.20394879970321
C          -1.34719589375068   -2.05857863281343   -0.22841547744345
N          -0.47173553684631   -2.40200276941757    0.71982866624832
C           0.55377026433965   -2.99469180716152    0.08293418963697
C           0.32581091174406   -3.01923966541637   -1.36373541713993
C           1.46197846825987   -3.65612821178070   -2.04858764593802
O           1.64085899252030   -3.80433504302146   -3.24073524446184
C           2.33864943229405   -4.04388447848354   -0.92987144904547
C           1.75538978412453   -3.61354425802352    0.35173348723562
N           2.55016714235719   -3.97135629227042    1.38684543786576
C           3.56828826751495   -4.59418994064268    0.83565149201356
C           3.49813519478367   -4.67764450772835   -0.60433703362326
C          -0.90964406603566   -2.44775662948727   -1.57702019829517
C          -1.67389232830068   -2.27934513085863   -2.76394943259104
C          -1.18347493305167   -2.51313146234665   -4.00182055047327
C          -1.92387442795045   -2.38663807685632   -5.22819976420150
C          -1.22901778160425   -2.22014427032023   -6.41091397197508
C          -1.92113436454890   -2.04772272666377   -7.62088433148792
C          -1.46646224056674   -1.79019632502820   -8.91269888143537
C          -0.04269306131303   -1.64786798458307   -9.32515924063091
C           0.36773546403333   -2.74126370577324  -10.32583596677199
N           0.16490831377349   -4.05169789095878   -9.73065973985010
C           0.26227005991296   -0.24791157676904   -9.88960429209519
N           1.69526169815501   -0.09607663153217  -10.07290038015597
C          -2.63281494209900   -1.67967584787811   -9.75061385056162
C          -2.78759589116467   -1.39805092725756  -11.05987335734161
C          -4.14248058530828   -1.21782936527539  -11.65493447713873
C          -5.27487069993664   -1.66933570818032  -10.79230022936181
C          -5.11021781303567   -1.95366713920118   -9.48506524397808
C          -3.81965874604649   -1.92353738745524   -8.90905525571911
C          -3.37349480701706   -2.12259464988125   -7.61682982576925
C          -4.06065659995777   -2.34277948325529   -6.40217748097419
C          -3.35557971798160   -2.44360623518521   -5.24646110325786
C          -4.27793159705664    0.28250444169254  -11.83876135238884
C          -4.42686216593107    1.12304343655470  -10.80399880364767
C          -4.55862351774854    2.53389105963619  -10.96898971830663
N          -4.46082243953514    3.12038134055547  -12.15455775017609
C          -4.61700659085446    4.43860750589292  -11.92683450530504
C          -4.81437806884677    4.71666014975499  -10.49741903312429
C          -4.99280482570421    6.15785361618528  -10.27404475122363
O          -5.15290068617495    6.74723503652377   -9.22314649593322
C          -4.92096509566505    6.70884200583267  -11.63821503277223
C          -4.68133602321629    5.62975680795157  -12.61498325011210
N          -4.62848204989117    6.12579657350355  -13.87376131679805
C          -4.82385573787356    7.41785269160923  -13.74071542100461
C          -5.01816091297557    7.84799781399181  -12.37455128117876
C          -4.79754679634206    3.49437413941193   -9.86842872449150
C          -4.99470649652681    3.15167654185611   -8.50155177851272
C          -5.14649657791040    4.07417784615043   -7.52450180652651
C          -5.37346677913717    3.73372922489222   -6.14795984527021
O          -5.53271416874921    2.38534396335623   -5.92504165055721
C          -5.83941539069378    1.94994859473617   -4.67730315022888
C          -6.12131064609184    0.64254078736252   -4.41906631077654
F          -6.16162620124997   -0.34401148545697   -5.31737607105428
S          -6.46476886995821    0.32209625254563   -2.75295486013021
C          -5.41606137812736    4.68833684061207   -5.19701400747227
S          -5.65168651450425    4.46388942637189   -3.48361646080954
C          -5.91739841950122    2.72416310224636   -3.48266293608183
C          -6.23583253203025    1.98974276719248   -2.38733252567512
H          -3.99379137982608    0.20737872743938    5.00014678019693
H          -1.87990240290392   -1.04147578682317    5.07451297078145
H           4.36051230629575   -4.98579250033970    1.44973815030991
H           4.22372880516153   -5.14636831707590   -1.23948578833849
H          -2.69077582204141   -1.93453844096999   -2.63196471340520
H          -0.14222918411801   -2.79317805547106   -4.09965935989961
H          -0.14921240679475   -2.19533317869794   -6.38972130975954
H           0.58075882657671   -1.77832452154419   -8.43352024700316
H           1.40772863564720   -2.53972060171122  -10.62689841251325
H          -0.26223674492857   -2.68762875858338  -11.21640765943302
H           0.74407033702398   -4.15735562548370   -8.90395006433681
H           0.42747115890569   -4.77992214754022  -10.38514748627976
H          -0.17567009787745    0.50370092664383   -9.20982554447079
H          -0.20779941237836   -0.12514232886109  -10.86731502781027
H           2.16995433248027   -0.11522109105621   -9.17588714506428
H           1.90478896173464    0.79201017334969  -10.51446037790796
H          -1.95223287852547   -1.20482169002571  -11.71593324349061
H          -4.19214954320605   -1.69542065794850  -12.63817385881498
H          -6.24998337076647   -1.67758331721967  -11.25340910651791
H          -5.95198366832766   -2.22835824942320   -8.86653185383852
H          -5.13705565845840   -2.41266235309592   -6.40339896262158
H          -3.87489906696745   -2.60898030456523   -4.31528259176743
H          -4.25315212186768    0.68285589407433  -12.84121543651912
H          -4.45571673584845    0.73745032577321   -9.79421951103533
H          -4.82864448871242    8.05724310746530  -14.60646132769815
H          -5.19650992359982    8.85620529111842  -12.05638219584423
H          -5.03261510935724    2.10204442664947   -8.24605514331338
H          -5.09915464621819    5.12819110961403   -7.75600788723806
H          -5.28127598283451    5.72057895816020   -5.46628116969131
H          -6.35576466710169    2.33330409682661   -1.38062847884758
