80
 SCF done       -168.370054733850          0.000791011906
C          -8.25893945555692   -5.66687700511368   -4.50629571328933
O          -7.62691158612403   -4.77488944232005   -3.70155905169155
C          -6.38935421798647   -5.09365652340945   -3.22004239437213
C          -5.72067864172839   -4.24119558533837   -2.39169011652041
F          -6.16293877730045   -3.05659912160070   -1.97369753142344
S          -4.17632758425985   -4.82788058829893   -1.88814697741222
C          -7.81608786023657   -6.84774055676195   -4.91431292150470
S          -6.25523052356737   -7.55444659194025   -4.49611247759599
C          -5.63643912898152   -6.27353984836471   -3.47032461498990
C          -4.41365186627775   -6.29465193976792   -2.82575528003483
C          -3.39191922076440   -7.27769700217670   -2.80507630145535
C          -2.23751381132088   -7.20579060985822   -2.05308105233609
C          -1.46455383684349   -8.37564028906193   -2.26959373132829
C          -2.23497847488212   -9.16694768178145   -3.23015925051350
C          -3.37442700405195   -8.53396452695549   -3.55417449556242
F          -1.83433403388035  -10.35444208059156   -3.70257278324533
C          -0.26126419534708   -8.73147444603410   -1.69203800145368
C           0.48971895067964   -9.91711847819396   -1.87546931423175
C           1.61151532567865   -9.88261588039028   -1.05881087916342
C           1.59660486166967   -8.61303163814065   -0.32742506014090
C           0.49650663309210   -7.94829302788960   -0.71110923732798
F           0.11528275726225   -6.74101967608846   -0.27780241081933
C           2.56713274494569  -10.90601054485064   -0.94968485536702
C           3.61653796773073  -10.89904939003802   -0.06832160086064
C           4.57066536675729  -11.90920694376722    0.10180809501582
S           5.70620768057267  -11.74998028070795    1.42222546589142
C           6.48546213028399  -13.27767155833751    1.09608076436791
C           5.88103454685820  -13.85839875967141   -0.01695876073844
C           4.81709560856031  -13.11293891658674   -0.58678486679646
C           4.28137071615443  -13.76209998973250   -1.72063620652293
C           4.90961926295049  -14.94653918436184   -1.98265612931904
C           4.64662868955583  -15.89432133112170   -3.06706575281315
O           5.25683775473292  -16.92114902051514   -3.23297820851487
O           3.64151729043604  -15.48226723741914   -3.85604219846587
C           3.32264069776850  -16.34524969002211   -4.93888233112236
S           6.18760579602858  -15.33343209406650   -0.86145661303944
C           7.53065489930056  -13.75829719725165    1.89919152936982
C           8.20895261297726  -14.96049020939810    1.77334910393727
C           9.16643838654804  -15.05579198131812    2.81255381204864
C           9.03128683998683  -13.81516555121558    3.58071251773966
C           8.06996406026130  -13.04158896389221    3.05253858602191
F           9.77605349971669  -13.52392813735047    4.65310295579704
C          10.03938435757591  -16.09392172330652    3.08039524604364
C          10.97418881564709  -16.20806396776043    4.14060581249712
C          11.62067157859673  -17.42611106817865    4.04561932050230
C          11.09345876475638  -18.12998794206943    2.87438587178340
C          10.16629824099515  -17.33818762894558    2.31536267026445
F           9.44468056208148  -17.61036268509947    1.22117163453790
C          12.61508040293650  -17.98344524208460    4.88619018168349
C          13.13372141761577  -17.36654018429401    5.97743129932179
C          14.12756738354430  -17.88458056146467    6.87019984558391
O          14.42257544079401  -16.96833322588808    7.85423176267237
C          15.33790306573817  -17.27092015528918    8.80823823768856
C          15.66391380233957  -16.39699991672142    9.80226274272338
F          15.16182251347765  -15.17520049078863    9.97314788965206
S          16.85160319380198  -17.01275824542968   10.90308241193929
C          14.69278484910218  -19.10692122877245    6.76541584496613
S          15.89236622332063  -19.81453121246656    7.81130233097908
C          16.07748960458088  -18.48197296254807    8.94309640363740
C          16.91648468336524  -18.48381505281909   10.00948082722124
H          -9.22675869752776   -5.28653376066424   -4.79796646446626
H          -8.40075924072720   -7.48085842417085   -5.55501242877744
H          -1.97101769781183   -6.39866787280268   -1.39909856188284
H          -4.12753659104609   -8.87481691360217   -4.23464538712796
H           0.22149786079125  -10.72259197042703   -2.53062503407698
H           2.33452469353685   -8.28021152053541    0.37497835073502
H           2.42013902545267  -11.75984478874555   -1.59387122844847
H           3.72163625258819  -10.05462012523347    0.59908349266610
H           3.48450284984950  -13.39510192213949   -2.33870494610848
H           2.51158921208363  -15.86481061907530   -5.47950227042705
H           3.01109369579868  -17.32276620881735   -4.56521934613796
H           4.19224574148712  -16.47816348351952   -5.58568260365231
H           8.03691928173554  -15.70488156043254    1.02204175074303
H           7.73769578598594  -12.07886536796227    3.38909893864010
H          11.13435106336857  -15.46094599545665    4.89146659141755
H          11.40878089154860  -19.10118778829971    2.54604138090099
H          12.96038970011240  -18.97114432788316    4.61200209394631
H          12.79133135301480  -16.37676735029295    6.24209986241869
H          14.41153488570809  -19.77121515175887    5.96947129412067
H          17.57112017230630  -19.27202183262160   10.31952847158746
