120
 SCF done       -191.370407830613          0.000599328371
C           6.13593621723136   -0.49243819234879    2.35839578696944
S           6.34984877729471    0.89633210344183    1.39717885412159
C           4.79926000582496    1.53798988432188    1.89926497808729
C           4.16236274730851    0.65738464559845    2.76527358338123
C           4.94501607538423   -0.48782955612832    3.03461521808760
C           4.51311500919061   -1.57121458139823    3.96043713148142
S           4.04612707147236   -3.08322607008667    2.99908048215922
C           3.38157992305583   -1.10693416020524    4.87125598421350
C           2.29424475706423   -0.40891016012230    4.06336411657540
C           2.82457030183824    0.86456441593236    3.40355488781281
C           4.46097514723470    2.82651593203633    1.41528129618968
C           3.35625352225028    3.56338595541344    1.70423973568708
C           3.17514595972424    4.86949511403825    1.18421806551513
N           4.00020016360614    5.39686039105835    0.28396108538469
C           3.46637207638527    6.57908654680734   -0.06299362686282
C           2.20070685742818    6.82062644382461    0.64760608106551
C           1.61742097089573    8.11294415931250    0.25513389304440
O           0.58070369019461    8.61721218813760    0.63061886704679
C           2.61013859332084    8.62771151346916   -0.70620201150569
C           3.71557398940505    7.66360055882479   -0.87353048725058
N           4.64104094445067    8.14150855296490   -1.73891666857256
C           4.19144416337137    9.32026630376148   -2.10357040299690
C           2.93486763850856    9.68856395889493   -1.49242885098507
C           2.02357050811692    5.75726068338384    1.48996576558959
C           0.95821606494844    5.55354322738019    2.42168995881446
C           1.05881622499716    4.85780392433552    3.57233423821511
C           0.00133893447208    4.57534974165682    4.50942111810554
C           0.25634780717091    3.68545003942154    5.53396380534768
C          -0.75443727837791    3.32920608446949    6.44145681929682
C          -0.75413329502144    2.44353355812670    7.51790204655833
C           0.39127995021266    1.61113749381927    7.97341420122178
C           0.89258970911523    2.07969325643315    9.36954549175911
N           2.13675119813149    1.49171178099207    9.79715345976071
C           0.03996388296516    0.11137807298383    7.97614398681165
N           1.24884865308356   -0.69364504520635    8.08930579777557
C          -2.07365249076663    2.48353754317834    8.08986899554330
C          -2.61278754769716    1.87752037987092    9.16740460136796
C          -4.05660084618372    2.01461111396181    9.48807051057239
C          -4.78882544954834    3.04820552463430    8.69853572418774
C          -4.22716275069230    3.68227259156422    7.64798540075246
C          -2.88548496428994    3.42478187604197    7.29537141294605
C          -2.06864105406758    3.93227711290723    6.30106096072939
C          -2.30053671116051    4.85873587210139    5.25970954686782
C          -1.29978959257134    5.16160241099765    4.39320695736819
C          -4.68156376590646    0.70361179757743    9.07967000523059
C          -5.41745653168119   -0.06272334907710    9.89683519335915
C          -5.98110955511413   -1.30506068422366    9.46965265050131
N          -5.55929361863411   -1.91128753187080    8.36806600162907
C          -6.17777836618208   -3.10785664532969    8.34179927620939
C          -7.04651856894458   -3.28149814137614    9.51405915467566
C          -7.71307215545906   -4.59215817513263    9.48186773166197
O          -8.48981356454072   -5.06574882713842   10.28244822104437
C          -7.19365784862652   -5.17926611543364    8.23066822350247
C          -6.26250369598567   -4.24353827125899    7.57016604814786
N          -5.79477912517412   -4.77001756191546    6.41226769956610
C          -6.37115760797869   -5.94573671771412    6.31516346501835
C          -7.26076773041570   -6.26084337088593    7.41013803737491
C          -6.96570323444359   -2.11385706719968   10.22734936806317
C          -7.67761946446703   -1.76337632551213   11.41104066113117
C          -7.96880012413887   -0.50098012448245   11.79281935262652
C          -8.68130686756170   -0.16011071920739   12.97545486239942
S          -9.34651185120178   -1.37848274916522   14.01969976237715
C         -10.00627535253606   -0.17891057821440   15.09017739008570
C          -9.72345853579237    1.09773356383692   14.64765071208034
C          -8.95628794927561    1.10900822453518   13.46258221714316
C          -8.50629362046137    2.37598373106999   12.80805332485873
S          -6.67806506168274    2.39430055804473   12.52152697645416
C          -8.88652931423798    3.61962975496826   13.60667653524029
C         -10.27916424264713    3.46729734868884   14.20474993545315
C         -10.25413652699891    2.35860018784979   15.25384064832677
C         -10.74171668640235   -0.64818891355701   16.23505122833823
C         -11.00917096677430    0.02873545453473   17.34973635959294
H           6.89060142834951   -1.25395361878541    2.38647714116573
H           5.35868263599957   -1.92726526673772    4.55445196705138
H           3.24666456606047   -2.46708362831824    2.13105719878517
H           3.79857754608598   -0.41470103931432    5.60918135767750
H           2.97124170207503   -1.96936700254549    5.39973915102155
H           1.44952885728842   -0.15240152897979    4.70578848506160
H           1.92237453530185   -1.09265401498594    3.29715289071936
H           2.92003153483975    1.65412034374526    4.15717003101130
H           2.10247419843146    1.20204007633873    2.65731594109236
H           5.18857129367379    3.29022918632439    0.76106948859049
H           2.56970166022384    3.18091398182212    2.32925064186839
H           4.74843648729520    9.91988461720175   -2.80273523456582
H           2.40671624174240   10.60748696523300   -1.65436037430716
H           0.03615192345041    6.05403325237580    2.15875679178619
H           2.02462478229691    4.45539936921478    3.85196325366522
H           1.24273274802667    3.25180841860507    5.63102843478292
H           1.22062412185006    1.75148373450939    7.26877911900828
H           0.13526384080695    1.83937305292666   10.11911756073229
H           1.01244744952051    3.16704898682930    9.34830158061263
H           2.07200365933976    0.47902852144796    9.73738804774021
H           2.89879106493200    1.78622507036272    9.19591216375252
H          -0.54258107313571   -0.11343820888953    7.06667297424529
H          -0.58843347435769   -0.12438291162878    8.83673193689134
H           1.00870182890456   -1.67292558760836    8.19670281271119
H           1.81131679899042   -0.60539404134491    7.24882772962443
H          -2.05021252785292    1.20932785131494    9.80175178558962
H          -4.21276106515265    2.16267102464857   10.56206080894640
H          -5.81335937167002    3.22383761874865    8.98562861503511
H          -4.78753929309143    4.41058402144334    7.07976344233981
H          -3.27356729862569    5.31673531437516    5.16161848712197
H          -1.47512864658120    5.87331871314561    3.60251483231744
H          -4.53870697423342    0.40609357181680    8.05130242970989
H          -5.58100309165159    0.23164886861212   10.92330495540612
H          -6.16390012473325   -6.58276402053773    5.47256690656186
H          -7.82754284676026   -7.16497535462808    7.51405293670110
H          -8.04837498819687   -2.59617399123303   11.99652145600104
H          -7.68323583657712    0.32822771040631   11.16226401337809
H          -8.91202420055225    2.43473225618284   11.79256458143852
H          -6.33298602675540    2.20595685040044   13.79278608101775
H          -8.83132224305234    4.49475565709189   12.95728590425548
H          -8.17024264758302    3.76387788553573   14.42055997747697
H         -10.99487668849251    3.21691580800918   13.41879320530264
H         -10.59146149685977    4.40650131488044   14.66315604332038
H         -11.25835690142572    2.17899144002414   15.64316461832347
H          -9.61994141536251    2.66846578428690   16.09105528475467
H         -11.07038674095121   -1.67706933907577   16.15394211997399
H         -10.66800995592648    1.03276849283784   17.52300425259743
H         -11.56969960120299   -0.42821814919118   18.14655633195213
