112
 SCF done       -180.625844563375          0.000594538264
C          -1.93619285419634   -0.56109371635575   -4.30732743765079
S          -1.91131454475115    0.91930013623891   -3.44649594038994
C          -0.70352860658867    0.30283498268255   -2.34381822651550
C          -0.37168089467811   -0.99864280724527   -2.65786181057611
C          -1.07483298968045   -1.48330624663007   -3.78875137821589
C          -0.90073444823850   -2.86439970937837   -4.31771560534559
S          -2.41716599896412   -3.86946671773569   -3.96509938797262
C           0.35006199864996   -3.53197863519608   -3.75595279472616
C           0.46301029096709   -3.31143362107726   -2.25153323319710
C           0.64649622895346   -1.82778722618284   -1.93827917566617
C          -0.17081892297770    1.11020463699301   -1.29810073102152
C          -0.55281530514079    2.38186689441720   -1.05132400042721
C          -0.02190070502666    3.21650737829636   -0.02961490881203
S          -0.64078577388589    4.83689486497063    0.15044698073101
C           0.44604410010448    5.16094489760361    1.46962272491161
C           1.22940853993851    4.05805831410861    1.73642433721103
C           0.96725227964939    2.97309470465368    0.90107899678486
C           0.45993390767093    6.42635644611970    2.11156588291416
C          -0.34401818664566    7.51728692107314    1.86282712331763
C          -0.05374127961168    8.61879493279282    2.66679486789415
C           0.98306234993431    8.39739896284391    3.55005057118891
S           1.60243867115924    6.77873448212276    3.37901915309745
C           1.54427822088767    9.30852213951118    4.48415319545411
S           2.89769554365436    8.87120814785407    5.48541044916991
C           2.94437653735214   10.45421274863861    6.21497565000664
C           1.94229341580403   11.24980699728195    5.69308857460437
C           1.16308874904073   10.61296053930896    4.73035207332888
C           3.94777105497925   10.74834568210048    7.17572195748705
C           4.12736867031131   11.95492963518373    7.76585123470796
C           5.15927127865083   12.26531093902600    8.68927304408497
N           5.29822412548883   13.55057121819294    9.17943150053386
C           6.37987445275716   13.58957703466206   10.00065557580635
C           7.16080499808116   14.42449661082950   10.79525294232743
C           8.18237032193497   13.62245202372612   11.31364372686632
N           8.02080968030531   12.32850076675282   10.85472312549518
C           6.93254459390972   12.28662120077583   10.04193891433395
C           6.16953912560156   11.45872408789275    9.22268618064092
C           9.28053883429048   13.96134477131923   12.14653408092219
C           9.57120805083527   15.21405731491497   12.57356423960115
C          10.70211083882458   15.56753183597952   13.35601604530638
S          11.00719858357591   17.25248947209451   13.69307342420865
C          12.47148317355907   16.87027693801909   14.55405948243334
C          12.67775543213564   15.50698935996970   14.57758862984978
C          11.69315717418886   14.78116231235445   13.91034539634418
C          13.29215822377740   17.89517806029434   15.08999983302341
C          13.09356051644484   19.25800045315723   15.04386861779281
C          14.12248955086698   19.99068226041026   15.63466931403459
C          15.13214507190533   19.20626971171475   16.14776654249895
S          14.79014129260592   17.51453514476595   15.89713373000423
C          16.33042446581968   19.62207245828661   16.78305126393342
S          16.71241661641729   21.31034419558982   16.95621783235568
C          18.23122429836214   20.93941331909434   17.72958709406696
C          18.39516697008388   19.57297963132341   17.84038200259531
C          17.33561895629224   18.83881844598182   17.31156369101566
C          19.08666406176111   22.00152815628683   18.12559799328816
C          20.31269547608494   21.84469251144051   18.67412715720273
C          21.16161229744503   22.92208047236980   19.04612020733138
S          20.68594654756672   24.57531180214403   18.78823365435305
C          22.19430814715433   25.17126070355838   19.42122315339538
C          23.01696742140684   24.13205502205050   19.80012840636322
C          22.42677519332661   22.86210632552219   19.60874730323728
C          23.12866059638334   21.58990825812456   19.96056405165278
S          22.10187214464624   20.51393406707795   21.06380759873338
C          24.47939268387398   21.82691937012597   20.63082013358553
C          25.20711910129863   22.99410490452143   19.97688672907526
C          24.43519814063829   24.28140672790817   20.25369947108414
C          22.38098461956158   26.59735803237969   19.44680920868207
C          23.25500358817110   27.28241334359773   20.18154983085232
H          -2.59258473470622   -0.67761654349327   -5.14710210487655
H          -0.87578091431846   -2.86124037018457   -5.41056263948596
H          -2.49552694089819   -3.56785926284566   -2.67134410790595
H           1.22427028781609   -3.10119338697212   -4.25181724395591
H           0.32210075675224   -4.59898617703135   -3.98297786872299
H           1.30984313746156   -3.87579908868703   -1.85793313053513
H          -0.43911443350398   -3.68315859333114   -1.75973293724525
H           1.64696031913498   -1.51171727100036   -2.25454886073955
H           0.57577000997088   -1.66348578624053   -0.86070723659353
H           0.59121559770583    0.64770137523529   -0.68740090722295
H          -1.31996666288623    2.82533581066221   -1.67321913028889
H           1.96818439525603    4.05536881638879    2.51884440900985
H           1.48876835324359    2.03567122809318    0.97100680827635
H          -1.11626952454225    7.50344303288423    1.11382890359786
H          -0.57992223107999    9.55381050122215    2.60530492287687
H           1.78015846284958   12.26704994934143    6.00058936973827
H           0.34319035299192   11.08648666191132    4.22091750414334
H           4.61737212712844    9.93669433391533    7.42116681032989
H           3.45981382284182   12.76923204106964    7.51468136603513
H           4.69729005454340   14.31943922513827    8.93805320792572
H           7.02585180126316   15.46984831242852   10.98412091794385
H           8.63788035965481   11.56588947207966   11.07488082962310
H           6.31037427928150   10.41580888212084    9.02471621434847
H           9.93396839289771   13.14411043447112   12.42308794355461
H           8.92561072776508   16.03100648349742   12.28537281089837
H          13.52927723321967   15.06544832165841   15.06558412634159
H          11.70291044051873   13.70902973406958   13.83324220308161
H          12.22440112140733   19.69647179123596   14.58606994929335
H          14.14546342678361   21.06484510364149   15.68976433675939
H          19.25734919933811   19.12192259793278   18.29692466611588
H          17.28743854080492   17.76382209617300   17.30510350568111
H          18.71244802898636   23.00345679403972   17.95557125474565
H          20.69796486953664   20.85124068473434   18.84638435780507
H          23.25093946719037   20.97314860761942   19.06398536792039
H          21.89073658468533   21.43704698993426   21.99839615424185
H          25.07227551711072   20.91272990465199   20.57473629497754
H          24.32415031097666   22.05793710255938   21.68822568634610
H          25.27797889418305   22.82975904115894   18.89944173080998
H          26.21911941750816   23.07363712318516   20.37672973795831
H          24.89610550109219   25.12232888495794   19.73109713143371
H          24.46453079637722   24.49590836976082   21.32716884737849
H          21.69658647774697   27.14019931100566   18.80595378785033
H          23.92621938845448   26.81798286852613   20.88013887309951
H          23.30270029245602   28.35558956335271   20.11639586615064
