112
 SCF done       -179.153361579660          0.000226545972
C           1.10194543736802   14.12581824035892   -3.22353955673642
S           2.28213312611323   12.89036403388441   -3.21125610493836
C           1.81075493791404   12.40867250540404   -1.59799225163885
C           0.78462967806506   13.20677327308208   -1.12435605504360
C           0.37923603331811   14.18208650179406   -2.06428761284593
C          -0.69544917581503   15.17544345594175   -1.78839475360676
S           0.04644427567583   16.86107431615614   -1.58605879032074
C          -1.52902865580667   14.78309404556091   -0.57285294922561
C          -0.64236311800754   14.32976952078801    0.58181037483194
C           0.12014026472779   13.05983267069381    0.20805383818515
C           2.44708252936679   11.32854996802518   -0.93154731556524
C           3.45694310222234   10.59615446712809   -1.45913895394316
C           4.11571548652988    9.53053712775555   -0.79770374463953
C           3.83214562084378    8.97010053907704    0.52821215791735
N           4.63383507361817    8.01125899274827    0.89203899614065
C           5.50652196229440    7.85065844160032   -0.14759387292858
C           5.18701363701713    8.77794470592498   -1.23581185288905
C           6.13548564167242    8.63379719336096   -2.30758640266275
S           6.19630106448401    9.52759635573083   -3.69192153586507
C           7.03616808083626    7.60317327114291   -1.85161189045018
C           6.62643129731823    7.14685556898869   -0.51374901924235
N           7.51106285944457    6.23162221440564   -0.02341873873759
C           8.44571125807354    6.13780506147361   -0.92578853870126
C           8.23635817647189    6.97334128996127   -2.10835981152495
C           9.11564866769780    7.06679587077015   -3.23979355371890
C           8.61169086540825    7.38352479600353   -4.48550057867881
C           9.48461024296092    7.52309573635157   -5.57582638477804
C           9.23035011772540    7.84602157651616   -6.90624917275868
C           7.89187012048318    8.07937184020754   -7.51505908222819
C           7.76374073797337    9.51064149308675   -8.07564946329196
N           6.36667895539233    9.87660964641540   -8.17033964790700
C           7.58660051924931    7.01151826050579   -8.58177650844819
N           7.50606775171491    5.71216697368290   -7.94257999531008
C          10.51172141037984    7.89338412035748   -7.57145212588331
C          10.85985116785028    8.19584012189895   -8.83746697283559
C          12.27693576885305    8.15195550920021   -9.29488460508940
C          13.27227898516217    7.85354087934272   -8.22283589602953
C          12.91436639101070    7.56225707361802   -6.95775628444081
C          11.55103077116709    7.56536318115161   -6.58086298115563
C          10.91399929308281    7.34031537645437   -5.37568632346892
C          11.39655482769931    6.98698984516349   -4.09459922954289
C          10.52093598959900    6.84709881336769   -3.06649179666046
C          12.36360599101044    7.08203296239786  -10.35919765465303
C          12.47397113708468    7.34723310324936  -11.66388086073683
C          12.55990243933112    6.36362344870738  -12.69951126357449
C          12.69061596721190    4.91398763321636  -12.57315380641029
N          12.77231219389658    4.27823823081634  -13.71035439099660
C          12.69826049242364    5.24151782050869  -14.67220385476207
C          12.54604408590348    6.56774239452861  -14.06050302262343
C          12.48279155712467    7.58513659942227  -15.07774004993020
S          12.35136107738149    9.20876008594570  -14.84071934155186
C          12.61007096887860    6.85596917476371  -16.31426718994263
C          12.74789955029087    5.41548926414825  -16.03263182137228
N          12.90014904500512    4.71212328854042  -17.18748405153110
C          12.91534711749846    5.59987436183913  -18.13952858047794
C          12.75669968197956    6.98597823499669  -17.67625582952428
C          12.72984846048502    8.14814769755369  -18.49929906531046
S          11.79064227324069    9.52622844066158  -18.02678190566689
C          12.25794648706764   10.40292755711295  -19.44716723172808
C          13.12038722559774    9.66015933507113  -20.23443849386048
C          13.39003150522565    8.38537522101385  -19.69517132971630
C          14.34900300837714    7.43681602660643  -20.34213339660617
S          15.45497767148272    6.61534413225958  -19.10914100263268
C          15.19089032471319    8.13115086356571  -21.40633723411198
C          14.27994675186505    8.94022024964926  -22.32158655662556
C          13.68929154028311   10.11248053344177  -21.54313642950590
C          11.70847933578416   11.72440458731020  -19.59999457185959
C          12.11055775759377   12.69019444870519  -20.42380773644672
H           1.00157943750595   14.75972341071017   -4.08264699318047
H          -1.33442647973863   15.30898955981071   -2.66516307106777
H           0.95674320489244   16.51333103677926   -0.67943939899926
H          -2.19565999793755   13.96549659398188   -0.86027375451059
H          -2.14410366939732   15.63142141245391   -0.26878256215329
H          -1.25433014950867   14.14150856033243    1.46509105262670
H           0.06496449778370   15.12377318412473    0.83300569810338
H          -0.57901397914529   12.21751046961051    0.16080901474962
H           0.85920082834606   12.82972440190566    0.97846514211867
H           2.07817592052024   11.10211359377011    0.05929639955436
H           3.81737875405810   10.83058944069187   -2.45328201733634
H           3.03313108049292    9.27679410457135    1.18048933378903
H           9.26270470458395    5.45076320476636   -0.78706092449088
H           7.55050644919359    7.51003594193289   -4.62389988156638
H           7.13195097400148    7.98108624662872   -6.73637213029561
H           8.30436911677971    9.58489192542531   -9.03441152185472
H           8.23553800349896   10.19867538140408   -7.36887081302337
H           5.89736770914263    9.35606332942243   -8.90191012659214
H           6.25854154723073   10.86504265829705   -8.35974402831212
H           8.34679199171691    7.05923532256178   -9.38077260012893
H           6.60968173881315    7.21405889888270   -9.02840059953286
H           8.39222172971169    5.47659493444638   -7.50788735747656
H           7.27721678792078    4.98995949500022   -8.61549298098979
H          10.13373727162875    8.45535314079983   -9.59424797560425
H          12.51982084101332    9.11278764195377   -9.76906491035268
H          14.30746475004328    7.85423102699213   -8.52838997817605
H          13.66250697943608    7.34001322114314   -6.21060824577238
H          12.45602373391677    6.83928558309717   -3.94445842203635
H          10.88040239508537    6.59692277143456   -2.07969151753556
H          12.31217533440068    6.06778218654797   -9.99072923771841
H          12.49750384203766    8.37364878783256  -12.01004807117925
H          12.72110654792723    4.36590670319448  -11.64781069762930
H          12.95315871829713    5.28439766824516  -19.16609064099249
H          13.81016659624746    6.59787876843154  -20.79437683464097
H          15.85063417101515    7.74097828279844  -18.51475171557512
H          15.74891452905591    7.38213980861033  -21.96946134861514
H          15.91064242828316    8.79947559285961  -20.92720073443383
H          13.47814570654308    8.30038579051937  -22.69643700072749
H          14.84270425683476    9.31332089777436  -23.17815587112131
H          12.90713024690761   10.59934904514445  -22.12996642531837
H          14.47573884402047   10.85087939095039  -21.35541550312209
H          10.88523032313794   11.92749583840054  -18.92551027873443
H          12.94593541643919   12.59114286532262  -21.09112827574085
H          11.60742204382547   13.64160130951593  -20.43190053544537
