146
 SCF done       -230.503880245709          0.000712183442
C           6.80302041460092    5.47474593185152    4.10834443551770
S           6.31337701093334    4.23142764466442    3.03067619449642
C           7.27293457767329    4.91932709554034    1.74808832566550
C           7.93327144114610    6.04132830003465    2.17053235277649
C           7.65345905254393    6.36461668358397    3.52620185314401
C           8.19336300474909    7.58414137710077    4.18557676281570
S           6.81787081034938    8.80349101458151    4.43844880126729
C           9.33947743273699    8.19947647971883    3.38981274603899
C           9.01463223029809    8.27025742448386    1.90126223175326
C           8.85143513319983    6.86592228635318    1.32299427700608
C           7.29955753136396    4.32730506699778    0.42291811609362
C           6.22242693130856    3.93457084477327   -0.26587303699936
C           4.85338724019782    4.16295170778831    0.18496813495611
C           3.83855974878602    3.19445275282088    0.06918425656200
C           4.15262925521918    1.86355159827469   -0.47529343547638
O           5.28722553282388    1.44387721515279   -0.60302081570562
C           2.99928016359540    1.03066971250960   -0.91490363036555
C           2.02743155422726    1.47414463579629   -1.76052651268279
S           0.93835679451320    0.22873450835218   -2.23066814826202
C           1.79866126359326   -0.91595537914656   -1.29224503380694
C           2.86631567345005   -0.36908479980390   -0.64156724905970
C           3.75293881246004   -1.16922957521580    0.23477412359539
O           3.95731181688948   -2.34674785894118    0.02565716257044
C           4.36168831671199   -0.43834522279697    1.37146661345101
C           5.66592705283036   -0.74700103743181    1.74525932337737
C           6.27291280896579   -0.05687629797115    2.77687121244504
C           5.57728847069940    0.93001980940291    3.45512396958089
C           4.26895123558732    1.22265135094190    3.10573404767018
C           3.66086339097202    0.54383968487217    2.06716077240351
C           2.56347285716267    3.49964464028362    0.55582668492770
C           2.29670254522385    4.69958307107616    1.17572751706671
C           3.29331539121347    5.67277095963409    1.29141535584389
C           4.54082665102430    5.39486414387853    0.74717003847046
C           3.10885587318178    6.91630381249595    2.04445887883721
C           3.74263867510846    8.06992044674264    1.66775184132977
C           3.68099596095337    9.21566548815983    2.49349557078935
C           4.29174544883016   10.45351189322114    2.37835500553796
C           5.13225673614852   10.93098324835778    1.23952646123976
C           4.34757822407042   11.94761912880118    0.39056642261616
N           3.25823635869767   11.27035670838815   -0.29131686661709
C           6.48300216734646   11.51343389102005    1.69275463942565
N           7.52701386109905   11.10133316877381    0.76504520632270
C           3.95549307308612   11.19453479015892    3.57079028761910
C           4.34255336066265   12.40417608075122    4.01600148499366
C           3.94191945699850   12.90523849414317    5.36134648477599
C           2.92905441277185   12.06448549628690    6.06620967012258
C           2.55381754299493   10.85400917221440    5.61216449198364
C           3.07151021991413   10.35410772023521    4.39470787891151
C           2.92151033252802    9.15147919292380    3.73471830938252
C           2.23759992384964    7.96004333211763    4.06789958707897
C           2.33395511731845    6.88241376544355    3.24870984216165
C           3.54201449356634   14.35437378763361    5.27479674020450
C           4.37735004608774   15.34241883766162    5.57828371566410
C           4.09677753593517   16.76688621241147    5.44654708881435
C           5.15439086157359   17.65540270627632    5.20604565840275
C           6.54908897076272   17.14339655611391    5.09121651893679
O           6.90059301031828   16.36375227033754    4.22878399572923
C           7.47563038672973   17.63381656276215    6.12108870069968
C           7.20557738937627   18.57822821654825    7.07721273593015
S           8.55831128445081   18.91407021852536    8.06259748956179
C           9.51995482825757   17.77204514654931    7.19767447927017
C           8.82351957092455   17.15477013862393    6.21200843710007
C           9.37990221542109   16.08074084667030    5.33569688568642
O          10.29731625098830   16.29011960865392    4.57608362206746
C           8.75915177131617   14.74592895712338    5.50737732959234
C           9.00285891037567   13.77394953969621    4.53850948238707
C           8.44853151451589   12.51545984101328    4.65828739112078
C           7.64709143160518   12.20893503093697    5.74657742663181
C           7.41690989729968   13.16473146203111    6.72423134801993
C           7.96792211924731   14.42816937733162    6.60958274376689
C           4.90129146127074   19.01188914363127    5.04482445715455
C           3.62160405483180   19.50686776494551    5.18035174587317
C           2.56978735095868   18.64869902679578    5.50253010068948
C           2.81480285482583   17.28361841673268    5.59719150624318
C           1.23057747106642   19.16670832876015    5.74397996217887
S          -0.12940110638645   18.37293667202413    5.02604348437732
C          -1.24187979373007   19.49837521197885    5.75297675097209
C          -0.57289133742760   20.42771370049031    6.51493981550188
C           0.83407898579192   20.23058677471860    6.51819831292460
C           1.75164563108490   21.09009605773396    7.33267350760054
S           3.00022992503335   20.09781753317340    8.26258908660140
C           0.98546759027883   21.97900764464173    8.30547399937410
C          -0.18387775557998   22.63986599541949    7.58679815979037
C          -1.21692948433058   21.57642391982422    7.22642593661152
C          -2.64026670667645   19.31874695989661    5.45570537812377
C          -3.68198562733108   19.82830931201580    6.10783799824327
H           6.42669158488698    5.48870893817462    5.11212020668390
H           8.50827829548805    7.37053957247992    5.21058692661527
H           6.30612309667925    8.71329030441617    3.21645339413472
H          10.22867248503525    7.58001867896213    3.53837752539055
H           9.55409392979029    9.19544564405483    3.78129167129477
H           9.81952660047787    8.78626884682730    1.37590524108083
H           8.10329560761856    8.85024311803760    1.74327292336135
H           9.82891188386361    6.37163260043337    1.28435470316702
H           8.47258176074945    6.92005250956142    0.30023946360542
H           8.28442015214724    4.20003845726713   -0.00911822686038
H           6.35268269827143    3.43470036271318   -1.21429776927200
H           1.90690512927737    2.46188178495862   -2.16078033659125
H           1.47134116296784   -1.93568590889866   -1.24452229091856
H           6.19383462635706   -1.51498813795467    1.20079887547829
H           7.29140665227146   -0.28662497858940    3.05243390114330
H           6.05235832444015    1.47246469107763    4.25863066003858
H           3.72590419937295    1.98888556037160    3.63907774531304
H           2.63253307999011    0.75700671557569    1.81187124284536
H           1.77725484778257    2.76326492591067    0.48055801574778
H           1.30686256910310    4.89257230638341    1.56189271243613
H           5.31683815942402    6.14237755553570    0.80572551730889
H           4.29179857302921    8.11705287332397    0.73878073316287
H           5.34902491282710   10.07575354164988    0.59219884870761
H           5.00353105936803   12.36742696497577   -0.37907937001017
H           4.01364863499714   12.77404894477167    1.04242440602645
H           2.65092825967727   10.82571410057882    0.39047547428358
H           2.70187669289054   11.93295185820639   -0.82053493305170
H           6.74047914115524   11.11141179974619    2.67597390477355
H           6.40518917007942   12.60827235742517    1.78850854632703
H           8.41442959309679   11.51518307528306    1.03228216614175
H           7.30925134007809   11.43128636892775   -0.17007908545590
H           4.99923169001700   13.05206967462560    3.45428143720015
H           4.87215566479927   12.86834592485167    5.95503944341965
H           2.53981949073145   12.46554047791255    6.99009005974294
H           1.84828781931734   10.25173447237990    6.16678900802881
H           1.66457818697434    7.91225930764561    4.98257274070966
H           1.85093687166539    5.95451987664273    3.51654392420824
H           2.54789906084000   14.54419934976615    4.89613346862759
H           5.37888119998409   15.09280981094576    5.90656515182712
H           6.28164468749046   19.09347855984206    7.25429976225987
H          10.53885918505039   17.60602962655597    7.48537704056284
H           9.62584937580465   14.03654367244877    3.69696236326898
H           8.63981180639344   11.76415296591668    3.90720301491610
H           7.20690956847241   11.22629852686368    5.83070860768897
H           6.81109279848793   12.92141534544368    7.58635617055041
H           7.79234419721211   15.16182092508857    7.38427697972099
H           5.71396770167602   19.67970740222632    4.79900427364169
H           3.43488110344473   20.55952774360772    5.03746713181866
H           1.99811616426996   16.61791728764863    5.83393714308308
H           2.37131232336745   21.71237724593851    6.68038646352525
H           2.11590956779160   19.38530001791237    8.95651657308973
H           1.66464806086781   22.72448399145742    8.72146581702155
H           0.60298548189803   21.37438955095601    9.13214570270749
H           0.17382561235523   23.13412218188203    6.68091964770814
H          -0.63993670844261   23.39585214184569    8.22746942386968
H          -1.99740435565290   22.00383570095770    6.59278365815155
H          -1.69242809552385   21.21456485035136    8.14423575075935
H          -2.82316874892256   18.66794194116725    4.60908874024801
H          -3.58773795540248   20.44418738878819    6.98249876280869
H          -4.68572087195694   19.61755922873696    5.78143431021202
