110
 SCF done       -197.645553443663          0.000280388655
C          -6.84817567505356   -1.98591160357369  -10.90737073585674
S          -5.23410891272839   -2.50773663218773  -10.96257589692959
C          -5.45927732906321   -3.62954733676952   -9.65206643654794
C          -6.78441481951678   -3.57520022655007   -9.18971063592879
C          -7.57287680739649   -2.62539273877110   -9.92028914339081
C          -8.93415478033545   -2.44916280401054   -9.57523098744372
F          -9.65618891266169   -1.55279695501279  -10.27517729655311
C          -9.50306703413898   -3.15510873633035   -8.55951285847585
C          -8.72802667287498   -4.07491029972263   -7.82899504029883
C          -7.41405044368999   -4.27745991230608   -8.13936941767761
F          -6.71025291288372   -5.17763553665260   -7.42584444695661
C          -4.40675900825403   -4.42733325625463   -9.15434728742530
C          -3.11697046596242   -4.36569030158760   -9.57967701247720
C          -2.04642548244065   -5.14313102415207   -9.07051056141459
N          -0.95976914318449   -5.30678725162125   -9.81953768737640
C          -0.18667168174794   -6.19643409055196   -9.17355687197847
C          -0.81699379408326   -6.62966231043633   -7.91967064018656
C           0.03414594820523   -7.60013411766223   -7.21268621909941
O          -0.17669464334275   -8.16087268883586   -6.15876858589453
C           1.19842944266018   -7.71069760290398   -8.11131950842772
C           1.02387037239437   -6.84257116300039   -9.29203715767199
N           2.10357578622121   -6.91842756962881  -10.10606127409838
C           2.92241747790472   -7.75485717641400   -9.51121179517635
C           2.42546001070724   -8.27792130840975   -8.25862486184134
C          -1.98130794373512   -5.92050597175119   -7.80327750970118
C          -2.86800234383447   -5.91762166710346   -6.68034515740790
C          -3.57114818798475   -4.84344933780946   -6.26615637987504
C          -4.51360501448735   -4.78962792314030   -5.17985458090895
C          -5.20346720225642   -3.61304551716548   -4.96983757997326
C          -6.17316301017790   -3.52428584310664   -3.95654908717956
C          -6.98195485413676   -2.46799781479329   -3.54901095611285
C          -6.99295501412591   -1.09359503115550   -4.12424989941557
C          -8.34920950534610   -0.73599643409962   -4.75817632558762
N          -8.51803266684088   -1.45585120858760   -6.01195133263166
C          -6.58916077741313   -0.03519256623353   -3.08038744786308
N          -6.38487845026059    1.24572969894277   -3.73606064036580
C          -7.77759251839768   -2.95229841023893   -2.44894973690423
C          -8.69339223090203   -2.35558228844728   -1.66089125780576
C          -9.39265701400938   -3.09451521450987   -0.57516610077275
C          -8.91702362035908   -4.49438398391550   -0.35272444924772
C          -8.00486513730567   -5.08301860458299   -1.15379049181951
C          -7.40871862448321   -4.36028305975263   -2.20840498085024
C          -6.43645437440558   -4.69310492077276   -3.13279258660501
C          -5.71603913334026   -5.88639303458062   -3.36477261472470
C          -4.78643802642591   -5.92709621453159   -4.35274227666009
C         -10.84124592924506   -3.24410265418648   -0.95423766913330
C         -11.86313352373799   -2.88674827453982   -0.16168608829453
C         -13.22513700248125   -3.08499889504802   -0.54046113781684
N         -13.55868293328071   -3.64525920956288   -1.69422212198458
C         -14.90531660590693   -3.65417257039741   -1.72395795423193
C         -15.47441275539889   -3.05254889168066   -0.51041034947140
C         -16.94194033586368   -3.08105606594023   -0.56519721292488
O         -17.73951188991282   -2.67311415005000    0.25648809141517
C         -17.20712631894600   -3.72737438486120   -1.86225830434769
C         -15.93967522771414   -4.05768967946970   -2.53807408419840
N         -16.17374773509822   -4.65371782175678   -3.73193830710346
C         -17.48193629627997   -4.71335327097492   -3.83269676345970
C         -18.18766042617915   -4.15531084959908   -2.70173662578065
C         -14.40143055961555   -2.68330192705381    0.26773947572643
C         -14.33790578361961   -2.05800843446492    1.54150081596875
C         -15.44786807228778   -1.64608547016172    2.20341053937983
C         -15.54517899738662   -1.02372929286101    3.47489040419666
S         -17.11069688899497   -1.13241681977174    4.21233827228348
C         -16.61556892569916   -0.35180519187303    5.66369299020030
C         -15.27015446111021    0.02799350779120    5.57424309417358
C         -14.65710197721802   -0.33724589431022    4.32313136621007
C         -13.32779229463287    0.09145229186186    4.11008169991175
F         -12.71274977571232   -0.13296946783569    2.92891613486694
C         -12.61565177337964    0.76630150551037    5.05955097769386
C         -13.19948395817412    1.07308691878023    6.29688632394815
C         -14.49393712784903    0.71705227819709    6.53423882740245
F         -15.03941514707827    1.04994567123867    7.72173007045508
C         -17.52790097611920   -0.16367707836570    6.75293059663254
C         -18.80270596477124   -0.55637683654781    6.73711468231339
H          -7.20487518989852   -1.24072206898636  -11.59041525699204
H         -10.54222951177268   -3.01025169096744   -8.31479103408330
H          -9.16903174618577   -4.62347698437587   -7.01404458303760
H          -4.67698004144956   -5.13339060160190   -8.38408440837175
H          -2.85483594538556   -3.73073327732261  -10.41742496388345
H           3.86909131357465   -7.99917017398417   -9.96133155379694
H           2.94288424296627   -8.96566815684991   -7.61916285820380
H          -2.87692853294068   -6.84031986411531   -6.11655318799700
H          -3.44359993944967   -3.91020936186794   -6.80224272246005
H          -5.00505377415855   -2.75808124203106   -5.60121969859805
H          -6.24615646295134   -1.05498548584609   -4.92507968820928
H          -8.37941464320336    0.35807827558341   -4.87530607248547
H          -9.16342146064285   -1.03872823175457   -4.09730938203190
H          -7.84449655142070   -1.12565910510946   -6.69602011460486
H          -9.44381658935592   -1.28346935001997   -6.38744056218288
H          -5.69765377841767   -0.39957511483276   -2.54225934536261
H          -7.39050578846794    0.09484870078785   -2.35082160609876
H          -5.58556774184645    1.19872129146362   -4.35981414766688
H          -6.19919511807022    1.97001158361856   -3.05159900509297
H          -8.99763778877511   -1.32827961473393   -1.79897676555686
H          -9.33220747339517   -2.51745817657512    0.35645297674188
H          -9.38274163084722   -5.02910126918459    0.46019500250820
H          -7.69850009184526   -6.10418603898768   -0.97918057645204
H          -5.91158711201779   -6.75439826392186   -2.75273302961099
H          -4.23297943585412   -6.83567734397296   -4.52668232311573
H         -11.04531248698466   -3.71101136528785   -1.90628324150624
H         -11.67612601238997   -2.41711572685847    0.79412055938337
H         -17.93907893400095   -5.15036956857992   -4.70365146066967
H         -19.25307363695029   -4.10910808686448   -2.59052815052961
H         -13.35908641251252   -1.93608171920632    1.97171744799794
H         -16.40857263311667   -1.86209566397838    1.74902329827696
H         -11.60451688006511    1.07093977955916    4.84391066765367
H         -12.64061752651214    1.60139929649445    7.05139071921375
H         -17.13255874011804    0.32971133602728    7.62761091986819
H         -19.23374756136154   -1.05123785748301    5.88213289429330
H         -19.44909358905410   -0.39034990966502    7.57973726012833
