96
 SCF done       -154.903709625463          0.000704408670
C          16.11025910343005   -4.76303647986650    3.33305153224647
C          17.41379188110435   -4.55064177416211    3.15055402711177
C          15.12134646735804   -4.17684090788345    2.53162716361921
C          14.26391933734482   -3.67467102934862    1.83419188076803
C          13.28908937975238   -3.11425584839833    1.02156896812313
C          11.96462484824871   -3.38714037319754    1.13926249127497
C          11.01164651377181   -2.82274499998231    0.25184720479024
N          11.37284264210499   -1.99359054679656   -0.72152220000650
C          10.24703686098261   -1.70338589248581   -1.39582798877662
C           9.08374724077607   -2.40285214818416   -0.82972566097062
C           7.87212044260940   -2.07734222068503   -1.59487856596410
O           6.73967672339240   -2.49049997423796   -1.43916299238196
C           8.37148252712831   -1.13545907623606   -2.61201763701465
C           9.82389685590932   -0.93988299963364   -2.46047309854261
N          10.29091359686733   -0.07102360761240   -3.38913893266043
C           9.23657428655928    0.27946234977414   -4.08875593317582
C           8.00645895878351   -0.34416616064603   -3.65585141160732
C           9.55590672344703   -3.11034001347624    0.25010177616735
C           8.87584430599528   -3.93357016026456    1.19143727229782
C           7.57799848973437   -4.28447599050627    1.04407685073772
C           6.80088288634751   -5.10332888559655    1.93346595597751
C           5.61211402059739   -5.62664416114179    1.46639877322971
C           4.82360040581564   -6.44805004962244    2.29018968387910
C           3.62438141024554   -7.10562700093366    2.04190767108288
C           2.87405716227648   -7.11201175281499    0.75489902535436
C           2.71364647613169   -8.53839303554115    0.19224586433044
N           2.57428168694479   -8.46758317503555   -1.24728357632097
C           1.51804515100664   -6.39784888825135    0.90419083212886
N           0.89671839478472   -6.20990316476171   -0.39812196689503
C           3.26299906735403   -7.78307143662887    3.26379124819472
C           2.22148220433793   -8.57738887413026    3.57237181288212
C           2.06450353632491   -9.17055257864222    4.93428470264617
C           3.13620601806652   -8.80412083906950    5.90503128272906
C           4.18938027814485   -8.03371141505852    5.57162786005899
C           4.30383677756304   -7.49989885840050    4.26672001429933
C           5.24989693600979   -6.69764734594461    3.66011391579818
C           6.46354628920142   -6.13486454454666    4.12045265844151
C           7.21380506647930   -5.37874381667710    3.27965712848555
C           0.67234872339845   -8.83209089104927    5.38708017729323
C           0.36203052379569   -7.97915788029285    6.37242171333891
C          -1.00305229217348   -7.70029290871043    6.69943847940040
N          -2.00087111968954   -8.23573335868022    6.01150911527200
C          -3.13095766291132   -7.76453028297801    6.57352806230756
C          -2.83434751771894   -6.87027649728910    7.70481699330069
C          -4.08220669246627   -6.37250120456004    8.30162175786213
O          -4.22745046790576   -5.62482416031258    9.24709513307564
C          -5.11841087280082   -7.00782100654774    7.46676576544076
C          -4.49422796396836   -7.84780604295507    6.42640624288665
N          -5.44047255020119   -8.43549107375066    5.65311943462437
C          -6.58508946410958   -8.01972725758128    6.14052503700950
C          -6.45771393964377   -7.12669004992246    7.27226108740572
C          -1.46543989701981   -6.81850229356820    7.79659730040033
C          -0.61627133340238   -6.12316941046511    8.70675840795766
C          -1.07948523064933   -5.34801965541223    9.70782685115035
C          -0.22700472774094   -4.64764933934243   10.64492880070507
C          -0.74659316678541   -3.89290941490454   11.63057427793769
C           1.17644417334846   -4.77797967843598   10.50044822882932
C           2.36922630416508   -4.90640013569470   10.35893471851724
C           3.75871017029187   -5.05246309657618   10.19467090180264
C           4.64955050334032   -4.62220334186045   11.08318202663663
H          15.75421519720106   -5.41487823496357    4.12199680218507
H          17.77380040542310   -3.90506592952159    2.36707483725199
H          18.15288096746096   -5.01715094230574    3.77850639434807
H          13.60922749148478   -2.43156450632551    0.24466667953964
H          11.61839337570662   -4.06623465861488    1.90551267734926
H           9.33426131221195    0.97320949875260   -4.90587075667379
H           7.03952560375300   -0.18872684738844   -4.09244601645988
H           9.45116360641429   -4.28907046154872    2.03516032800155
H           7.05832812746261   -3.94485693260879    0.15745960536085
H           5.29976444553154   -5.41378191047488    0.45471709269279
H           3.45821775105109   -6.55997323413674    0.01233381355817
H           1.86433320440270   -9.03462882110365    0.68981123666713
H           3.61763382996148   -9.11524008057984    0.41735793555875
H           1.75787517574144   -7.90395661533300   -1.46827537677331
H           2.44969949374375   -9.39259338229300   -1.64299193463447
H           1.68627789095190   -5.44981366366960    1.44376499579193
H           0.83995336742056   -7.00484687575167    1.51002318986036
H           1.45933291321398   -5.57830030928217   -0.96033787976425
H          -0.02182665837648   -5.79252211378794   -0.29185040225031
H           1.44324275828698   -8.81060494768572    2.86134738178169
H           2.08727206958611  -10.26691350111391    4.81004277383436
H           3.03332291971372   -9.21423219207653    6.89845617301210
H           4.95894765330934   -7.80972969343772    6.29646962049389
H           6.78193890217971   -6.31466350835873    5.13715269442614
H           8.13515532010696   -4.94188235334304    3.63323762029389
H          -0.13852234012677   -9.29666967799555    4.84306988380508
H           1.13307561577935   -7.48118435051760    6.94190172026229
H          -7.51201024542756   -8.34473267208182    5.70033105569995
H          -7.27098558584350   -6.67994258623106    7.80936177662311
H           0.45238413228764   -6.23692150428401    8.57834294310923
H          -2.14424752390905   -5.22389112023732    9.84939957005500
H          -1.81196206765683   -3.78948612764925   11.74294305575264
H          -0.11990958527998   -3.37026978858715   12.33250483745757
H           4.07215572902358   -5.54471033691887    9.28166684078951
H           4.34513920771389   -4.13082776310557   11.99140576861114
H           5.70717908739379   -4.74878519795641   10.92878491692919
