88
 SCF done       -151.725017398200          0.000650273769
C           0.80220225847725   -1.34775783874990   -4.72716475754983
O           1.32538369224607   -0.23164930250210   -5.29252232033347
C           2.52128070823766   -0.63123907390213   -5.75723560424034
C           3.82197741603051   -0.36171853052968   -6.46046668318692
C           4.12957849293603   -1.87251341247306   -6.18473747853015
C           2.77127026514665   -1.93874449617539   -5.51098248960402
C           1.63897998422196   -2.45688108031121   -4.81948146170722
C           1.42207167031032   -3.79086806854649   -4.34481913310555
C           0.31631351324608   -4.21397047636250   -3.69216731760657
C           0.09665918431487   -5.53882596132592   -3.22945206652778
C          -1.03149547239213   -5.98297059155458   -2.57588785308009
C          -0.89201467820317   -7.36672667349552   -2.27844441252084
C           0.42337974821463   -7.73411127559359   -2.80405126946844
C           1.01732472081196   -6.67008308007233   -3.36623040612817
F           0.93865222355098   -8.97194972003155   -2.72052724213291
C          -1.78236963539850   -8.20454669878819   -1.63882248222047
C          -1.64481073770065   -9.58506009409032   -1.34525013276054
C          -2.77690071831838  -10.03238852696194   -0.68832471535448
C          -3.69254179666258   -8.89780967811129   -0.54700141639243
C          -3.09668751678872   -7.83515014480063   -1.10848049113645
F          -3.61014142219620   -6.59780661182017   -1.18574733542590
C          -2.99584993411003  -11.35013403098358   -0.23811432627351
C          -4.11241216411348  -11.78557456148491    0.41282478031504
C          -4.32284081868008  -13.10588606532698    0.86276049687698
N          -5.48877963473658  -13.45676184803335    1.51812242133946
C          -5.43165443226625  -14.77550617152616    1.83832169259464
C          -6.12143129850475  -15.81411901015068    2.44414856078790
C          -5.29325062414862  -16.94607713971075    2.34188633358389
N          -4.12686394627999  -16.59421348444371    1.68817211059457
C          -4.18474372392000  -15.27568691078249    1.36815897902345
C          -3.49480035751162  -14.23822392728136    0.76186268759220
C          -5.49965838773637  -18.26974215619597    2.78378761603689
C          -6.61334694677675  -18.72109200591092    3.42890550324665
C          -6.81697639209620  -20.04791589867390    3.85899355919171
C          -7.94678310941425  -20.52424514566095    4.50259888338629
C          -7.79222983287672  -21.90709464133718    4.76673400757813
C          -6.47151670364671  -22.24775171733518    4.23763238275639
C          -5.88587475072807  -21.16581973328001    3.70136770048304
F          -5.93914271912104  -23.47967716331469    4.29345610971174
C          -8.67742279277105  -22.77586439494578    5.37897817023612
C          -8.52272246816159  -24.16279996590537    5.61958558127071
C          -9.65794593359617  -24.64850670300211    6.24305871957024
C         -10.58770886573977  -23.53101209055124    6.42007612494481
C         -10.00065431073781  -22.43837098013053    5.90953960889149
F         -10.52156721429606  -21.20143244608866    5.87527624639211
C          -9.95380143245288  -25.96597281943618    6.65747162679012
C          -9.11213912365267  -27.02958548017286    6.52201262772311
C          -9.42153755389781  -28.34503728655499    6.92663313374766
O         -10.65409395796793  -28.60816578426008    7.49015273073302
C         -10.62665814261547  -29.91853485555068    7.74574074734848
C         -11.27514464686043  -31.16757852571144    8.26768672331393
C          -9.94025725782915  -31.87712892597922    7.85908947996843
C          -9.45932571320889  -30.51776802080163    7.38630082366228
C          -8.62860923437366  -29.51592166439227    6.83934826696088
C          -7.29424408703591  -29.62174795888341    6.31379688117416
C          -6.61736257688274  -30.76722006741581    6.27040554699235
H          -0.16927449356022   -1.24377270103791   -4.28832630870686
H           4.48505798167388    0.34074199175104   -5.95889243304180
H           3.73572864350674   -0.09544139004798   -7.51237176155066
H           4.97632607664968   -2.04632697690738   -5.52464949373515
H           4.22663529455748   -2.48302977082861   -7.07966360730666
H           2.22626583323991   -4.48440365178196   -4.54587343842667
H          -0.48289262166780   -3.51172316961612   -3.49602931469528
H          -1.88672259734538   -5.38528308075990   -2.32879816144014
H           1.98355940541120   -6.64373721444989   -3.82939859282218
H          -0.79265628762787  -10.18583819328265   -1.59573682597150
H          -4.65783606570471   -8.91855609505637   -0.08089641191541
H          -2.19918903590043  -12.05424833762830   -0.43493717475669
H          -4.91143023140023  -11.08399593218078    0.61194787713662
H          -6.24319303308585  -12.82231693241410    1.71607440188821
H          -7.08807700957036  -15.78716845555301    2.90379775671209
H          -3.37332278847411  -17.22904497781116    1.48835842907010
H          -2.52824052570791  -14.26693360708843    0.30223891533247
H          -4.69611816636811  -18.96465875606915    2.57930908389767
H          -7.41712722997846  -18.02729686793906    3.63318876921484
H          -8.80928855166583  -19.94084669362475    4.75878399426153
H          -4.91750227289784  -21.12392307452964    3.24324616975126
H          -7.65698143009211  -24.73216390410736    5.34749494965780
H         -11.55478707565618  -23.60191404281538    6.87904526462579
H         -10.92177149412106  -26.13204954775686    7.11144277267915
H          -8.13885569545739  -26.88720124907760    6.07854713378023
H         -12.15763934365565  -31.49506436406792    7.72110067254811
H         -11.48797854204154  -31.16661008947734    9.33524041340549
H         -10.04755400135037  -32.62077382570721    7.07258458032739
H          -9.37877141410625  -32.29609848807421    8.69101626837465
H          -6.84592261143578  -28.71036150341322    5.94419853554631
H          -7.04566700001942  -31.68646458703088    6.63307043596212
H          -5.61916452750228  -30.82038359421371    5.87312163064533
