92
 SCF done       -184.131055086980          0.000428107045
C         -10.48643937184198   -3.20128239071668    2.04308586517240
S          -9.62592676118538   -4.58919556261797    2.55601564797888
C          -9.27661155955317   -5.08791172815737    0.92513648555173
C          -9.87840632820535   -4.20180362308396    0.01120124472364
C         -10.54295010702909   -3.10335977806331    0.67693913456599
C         -11.15182753384418   -2.08337961979447   -0.09451900111243
C         -11.15560782772814   -2.17420719166355   -1.45429523092765
N         -11.58681896734884   -1.01518185136631   -2.20888062107094
O         -12.58114699364585   -0.44511670780206   -1.83016250887834
O         -10.85813349227866   -0.65990047378617   -3.10677046759268
C         -10.61480119243805   -3.32010691049443   -2.10701438207969
N         -10.80915008720886   -3.53574160827426   -3.49209739251061
O         -11.72988754384315   -2.97609558971732   -4.05115717312244
O         -10.04395174990434   -4.32415740476027   -4.04384177522633
C          -9.98881377858399   -4.30972778320306   -1.37378306486778
C          -8.46901493167578   -6.22853745995231    0.69514717851461
C          -7.77016157966378   -6.46545435370474   -0.47367938396936
C          -6.96958834356253   -7.57369493790071   -0.71887047870948
C          -6.69811639989953   -8.55087759562183    0.34763139426578
C          -7.24211036999870   -8.51027113901869    1.58103190337429
S          -8.37139475080940   -7.32027951702149    2.08519235049657
C          -5.74324847907824   -9.45429713443989   -0.19377117433930
C          -5.44471857494988   -9.08829870937199   -1.50486108817647
C          -4.49703525464072   -9.95464774611676   -2.09518866153363
C          -4.10848712489171  -10.92980517388789   -1.23374415548587
S          -4.87374895737504  -10.84322575129813    0.31892584171762
C          -6.21772572015613   -7.92825847873369   -1.86840474139779
C          -6.16405579546797   -7.39215085476321   -3.17141205331255
C          -6.99201923487314   -6.47858340933040   -3.75614343014878
C          -6.85397098868765   -6.00944311084728   -5.07981217698906
N          -7.73023780602287   -5.07551062070958   -5.58698563595170
C          -7.36262115202616   -4.78375007973063   -6.85540203594653
C          -7.66551749450656   -3.99219061687026   -7.95455893682514
C          -6.71360516995787   -4.30630137522396   -8.93627771356938
N          -5.85205440070828   -5.27134962922965   -8.44651597949650
C          -6.21337573918973   -5.56704633795021   -7.17029969390218
C          -5.89132769611225   -6.32893143800784   -6.06064586840660
C          -6.55833243915073   -3.79098885136470  -10.24328703368499
C          -7.20886635092391   -2.69983067962252  -10.72607554565401
C          -7.05944453470491   -2.16349107422635  -12.03230207758448
C          -7.56134326152093   -0.92111588109877  -12.36197034817805
C          -7.42991732353617   -0.30601862768196  -13.60152442224312
C          -6.76552402937461   -0.98102995872303  -14.71802961710419
C          -6.20380828548474   -2.20657293275342  -14.63389587338292
S          -6.18959573404918   -3.14983599876833  -13.20174314421842
C          -6.83370060607969   -0.06721935127391  -15.80538314514564
C          -7.46290353121217    1.11278793581739  -15.40332629634626
C          -7.55859486960028    2.03650988402469  -16.46900046157256
C          -7.00776638296743    1.54905410496249  -17.61172906312670
S          -6.35247434999753   -0.04277032406637  -17.45389371768396
C          -7.83323849331300    0.98658158769422  -14.01312428768225
C          -8.41758932488916    1.94387982662661  -13.16622924647636
C          -8.62026441689028    3.26267772599680  -13.45375759156594
C          -9.15465384781149    4.19209272584251  -12.54456624614085
S          -9.72989736846680    3.74314269570408  -10.96629500323175
C         -10.11897114626391    5.35617805519387  -10.54728240953227
C          -9.83142729726871    6.23802951372960  -11.55985950721294
C          -9.28198811834328    5.58212564919997  -12.72100204060728
C          -8.96055401450439    6.33922327892177  -13.84929129637454
C          -9.13933522279170    7.70363017633483  -13.83706533208394
N          -8.96521449406321    8.42247363215878  -15.06329783887098
O          -8.23697234907809    7.92919505955788  -15.90151692449072
O          -9.60638928978657    9.44342107257089  -15.20597995765273
C          -9.62215075220536    8.35844424697521  -12.66773243619463
N          -9.59898969964636    9.80411350530569  -12.55389968542778
O          -8.58437150190976   10.35428738812065  -12.91295705077777
O         -10.54748915680004   10.33169229434820  -12.02459020112494
C          -9.97998220606495    7.64550447004607  -11.56145551502758
H         -10.90839733907493   -2.53585489418843    2.76856152894461
H         -11.58039204519007   -1.22051234499509    0.39146300409790
H          -9.65751353051180   -5.19199179730891   -1.89675192713047
H          -7.79605106939371   -5.68567338484912   -1.21716377291090
H          -7.01003354965759   -9.23743825188735    2.34279051596061
H          -4.11786073033626   -9.86679819318068   -3.09706932184106
H          -3.40377989975838  -11.71905368750135   -1.40874490110447
H          -5.37743430341818   -7.80674144224680   -3.78788370546362
H          -7.83985451426882   -6.08216397551377   -3.21908828891071
H          -8.54709044767843   -4.73247218342661   -5.09974366211404
H          -8.47041570452653   -3.29432016917665   -8.05873755512660
H          -5.07060132119758   -5.64682129395691   -8.95539827655176
H          -5.08283941798957   -7.02212157577097   -5.94767356759944
H          -5.84109605960919   -4.29696066033576  -10.87838835580493
H          -7.87174116094322   -2.15386534150050  -10.07040485676596
H          -8.07786071228238   -0.39093044663669  -11.57331401741183
H          -5.70782755378393   -2.67858816841393  -15.46705146851074
H          -8.01653500310382    3.00703649782184  -16.42331999457123
H          -6.94272062945912    2.03569758525923  -18.56516489387026
H          -8.69040503923246    1.60627284171020  -12.17371061125588
H          -8.32045314352552    3.65323506500221  -14.41277998815976
H         -10.53656152719576    5.56937093033748   -9.58429549160876
H          -8.59723982461697    5.87762770377467  -14.75453031305906
H         -10.33904581047231    8.15500972729916  -10.68051898385359
