100
 SCF done       -167.386227642514          0.000707065578
C          -4.57594424099274    7.24708113837295   -4.73351016620445
C          -5.65969205864736    7.41422444498299   -3.95494477756450
C          -5.34932508544919    7.05203288630389   -2.58569565220580
C          -4.04966212779098    6.65155768280990   -2.49133592658760
C          -3.46489573092068    6.74641460278163   -3.88983374850829
O          -2.34694785658320    6.46210860060078   -4.24342286951345
C          -3.36399838966528    6.23082326616678   -1.33142663071957
C          -2.04173026133065    5.89804917103991   -1.29243932569027
C          -1.40940625578644    5.50367046788122   -0.09109207184802
N          -2.03616003773659    5.56418355420212    1.08513529417495
C          -1.11925474790240    5.25570235594043    2.01278522879843
C           0.19269581606525    4.99625542836665    1.40045689540316
C           1.19440233618847    4.66817012353716    2.42642473973108
O           2.37091460029103    4.41361101097464    2.27829636424335
C           0.40491497711395    4.73168942737880    3.67054445815050
C          -0.99473457276592    5.09524262284812    3.37628063784946
N          -1.72974693589291    5.13287460012055    4.51207763140518
C          -0.89185590998465    4.81212092145139    5.47199808796629
C           0.45257882886862    4.54256666827275    5.01658310431247
C           0.01316707655843    5.10270560807642    0.04741297837825
C           0.98926213868542    4.87745088502304   -0.97088784191971
C           0.73156099947549    4.43004346450661   -2.21705393535317
C           1.71601690185065    4.16643008885129   -3.23617680754972
C           1.35226885909995    3.41724744045121   -4.33665192267098
C           2.29623821258139    3.12177496749149   -5.33574263659215
C           2.19097864754777    2.36394089322395   -6.49854058083751
C           0.97976810692434    1.63572733563703   -6.96977066416148
C           0.57990828717643    2.02343304648833   -8.40650518797796
N          -0.86055212268853    1.93109406361439   -8.54457939304294
C           1.17495639878379    0.11365270801562   -6.82720829449363
N           1.21154649721998   -0.23155316745747   -5.41939156985985
C           3.48935469348399    2.38412238714589   -7.12868736139779
C           3.95167089042395    1.81152605385308   -8.25687922833255
C           5.38102988486959    1.94418611271317   -8.67034389567036
C           6.19721269651583    2.85955280662897   -7.82101244397334
C           5.71830098309690    3.43741328830996   -6.70237726412698
C           4.38243007676658    3.21159652299598   -6.29906412577526
C           3.64893609471590    3.64251634326363   -5.21011296370249
C           3.98853558185050    4.43100010581089   -4.08718694381055
C           3.05295404688027    4.67391521761341   -3.13409791970759
C           5.92290117582908    0.53576092013401   -8.66226913891558
C           6.59181297438958    0.00485489594428   -7.62998431744124
C           7.08386080754410   -1.33802796722345   -7.65776402873935
N           6.93188031071804   -2.11027151376433   -8.71974086271131
C           7.53088593399078   -3.28159858024556   -8.41370208773764
C           8.10362195856180   -3.25427297838625   -7.06364512956701
C           8.75271020671060   -4.53849013105147   -6.75677320023798
O           9.32493997258595   -4.87664714497068   -5.74376215567718
C           8.53268788477246   -5.31560664355600   -7.99307755461599
C           7.78142274017219   -4.51106142434013   -8.97551558715973
N           7.57334841249073   -5.21631200872273  -10.11488891464579
C           8.13838284890035   -6.38074550526986   -9.90230906615399
C           8.75567095885563   -6.51044269579808   -8.59824743169284
C           7.82002711258808   -2.00602208690306   -6.55486558580690
C           8.11455752008202   -1.41803989988844   -5.30015997010397
C           8.81553351342391   -2.03861031685919   -4.31150970111691
C           9.10394975880747   -1.45541933991267   -3.05555320180993
C           8.77083425164862   -0.24504232080776   -2.51661759895234
C           9.30197409714801   -0.11772323533187   -1.18626734323877
C           9.98833515150969   -1.23845723232096   -0.83716888137707
C           9.91558697952075   -2.17960835962636   -2.00913788465278
O          10.40509927996175   -3.27348337850552   -2.09005705683182
C          10.68871273854401   -1.59727396553275    0.35884166536304
C          10.81339696097408   -0.82845801078434    1.44335991908730
H          -4.47867868322023    7.42143164887064   -5.78777473750013
H          -6.62797776138365    7.76409122013368   -4.26693246543827
H          -6.05524656377525    7.10758663989081   -1.77666747498240
H          -3.92859785602769    6.17179111275456   -0.40909641415572
H          -1.44303010643106    5.96105402947408   -2.18778146789019
H          -1.22815009674144    4.77241883048435    6.49369649617614
H           1.27850209040204    4.26113724254242    5.63962605394899
H           2.01053253135752    5.00481097115175   -0.63631252493907
H          -0.28495476644216    4.17876387047660   -2.48954235562013
H           0.34481084376925    3.03841641743981   -4.42259385987659
H           0.14024653207943    1.91127423203325   -6.32652332653300
H           1.12793019027621    1.39519175675649   -9.12908548447468
H           0.85860909909481    3.06564198896567   -8.58689853986382
H          -1.17373813029331    0.97525634497007   -8.41628392437716
H          -1.15740106707130    2.23986008218003   -9.46276906618476
H           2.08145825911488   -0.19144055745180   -7.37869907300864
H           0.31890833648579   -0.40561026707908   -7.26764399219339
H           1.99770327222093    0.22165435537370   -4.96532865387625
H           1.30674661001382   -1.23259077978897   -5.29391460235032
H           3.33019813845578    1.19594005434025   -8.89007744310753
H           5.41128610749382    2.29851109239441   -9.71039105562828
H           7.21704882223803    3.01185914652724   -8.13993530608849
H           6.34264032086232    4.08641831991602   -6.10533225982665
H           4.98773997879499    4.83168742368336   -3.99855374768816
H           3.30749848010154    5.28285615178813   -2.28111775209832
H           5.72753450180477   -0.08112358087316   -9.52741753396840
H           6.78641993571490    0.59589674169667   -6.74636721998700
H           8.11894725905861   -7.14051462548278  -10.66442144088679
H           9.26710978607314   -7.37900671547068   -8.23315352364870
H           7.75229879445237   -0.41248156520290   -5.13288540825310
H           9.19243909118564   -3.04249376352947   -4.46668689905898
H           8.18987564915649    0.52848198194655   -2.98738097325572
H           9.15485176105673    0.75725668175040   -0.57860826684103
H          11.13722674230323   -2.58265865091106    0.33436444128575
H          10.37861397665693    0.15503168725174    1.49804259244779
H          11.35447707254635   -1.16430574137924    2.31031905360629
