118
 SCF done       -195.201659553944          0.000308363086
C           1.47092613561208    2.54160288880244   -2.04642020253241
S           2.65369015723327    1.60416280330616   -2.82933993890468
C           1.47361759649068    0.49176710551279   -3.45731072204614
C           0.17912133032505    0.91395336312770   -3.11050255322372
C           0.18838236491818    2.07499835792925   -2.27213465078622
C          -1.01801434177066    2.61522648801716   -1.76936588097906
C          -2.20545643759022    2.04055173763012   -2.13865906082957
O          -3.43837110193482    2.42122368750176   -1.71221285147119
C          -3.53458229480875    3.49625120273395   -0.80845410898258
C          -2.21818364814553    0.96310858951746   -3.06663344951835
C          -1.06767806090182    0.41310445553436   -3.54207847522828
C           1.90731148588352   -0.68137254357664   -4.11204284015932
C           1.15676311597815   -1.81476720595525   -4.19721190319028
C           1.56311283572907   -2.99945863418506   -4.84609711556856
N           2.72011597091695   -3.12829061568578   -5.49092687283446
C           2.73118385677116   -4.38158414892659   -5.97298930039324
C           1.49982340412256   -5.10953047871948   -5.62451114010317
C           1.54109019118143   -6.47806696802530   -6.15791394242484
O           0.70416785467042   -7.35347043311092   -6.05912831073244
C           2.84822275832318   -6.52172505686212   -6.83451447488906
C           3.54094808623110   -5.22822284186514   -6.69973194452014
N           4.74643909677641   -5.26310776020055   -7.31458983760336
C           4.84102887861957   -6.47599016539073   -7.81215449190584
C           3.69441367244142   -7.31254908634486   -7.54904044206050
C           0.73761476168630   -4.23449516224589   -4.89411227054153
C          -0.54032405436084   -4.36868996340208   -4.28582819038703
C          -1.31555657352866   -5.47379858749304   -4.34870347766538
C          -2.60208010939727   -5.60070477567313   -3.71257306941148
C          -3.29772485396389   -4.51705903175280   -3.21594898831556
C          -4.52656608243713   -4.69634480891357   -2.55816475969699
C          -5.39042648662785   -3.78602869812923   -1.95379718983296
C          -5.27297589789605   -2.30360947173068   -1.85582403297701
C          -3.94286426041759   -1.84992989584696   -1.22160051329520
N          -4.15196041304997   -0.61481815485886   -0.48592261684795
C          -5.47590051017306   -1.64077984008938   -3.24596132542556
N          -6.76377339520549   -1.86835709856485   -3.85434261896485
C          -6.49305376701075   -4.54924122601009   -1.42650847212595
C          -7.58797308921429   -4.17136828811160   -0.73959134137455
C          -8.61315327999129   -5.15942520571199   -0.31138622988951
C          -8.25224563190498   -6.59029206273416   -0.56100503362952
C          -7.15839441266224   -6.95080804348511   -1.26335675695251
C          -6.25359893658635   -5.97122620109403   -1.72587253027911
C          -5.06051811390246   -6.04428940697381   -2.41928357503232
C          -4.34826282442864   -7.13598870742271   -2.96779255736153
C          -3.16520622952235   -6.91435148497256   -3.59424525780578
C          -9.85756300462771   -4.94360504837924   -1.13185753921801
C         -11.07700776837556   -4.75170101241122   -0.60871755339925
C         -12.24116913110721   -4.61730106913983   -1.42937116299885
N         -12.14018288337254   -4.49055726758126   -2.74384860684846
C         -13.39340716928669   -4.27572292190916   -3.19637962448737
C         -14.35336702010757   -4.23809614592260   -2.09204334452395
C         -15.71454490948900   -4.00287226224014   -2.58834604125842
O         -16.74512674587974   -3.90094430292707   -1.95659670487038
C         -15.50827946432747   -3.92153085799846   -4.04964134935465
C         -14.07955453399072   -4.08935288094224   -4.37537876405621
N         -13.88387662160908   -4.04049550898242   -5.71558017171890
C         -15.07925503837589   -3.86451157419098   -6.22848060349890
C         -16.13848896079212   -3.79010715772090   -5.24660952948419
C         -13.63914142947787   -4.50417522331229   -0.94722152959376
C         -14.16027936644815   -4.62334569712217    0.36855813487920
C         -13.59611585708786   -5.33262331041391    1.38065374906355
C         -14.08113702786482   -5.46321998655742    2.70184463272454
S         -13.45219306338720   -6.77345823496607    3.65382832664800
C         -14.47637207166633   -6.43674834124859    4.99929304563003
C         -15.23904390495190   -5.28955757215950    4.75555416986718
C         -15.01694437581092   -4.72835074970464    3.45378810848526
C         -15.66259338065830   -3.53617340060067    3.09998574606841
C         -16.52733553405404   -2.92339610524330    3.98290360551963
O         -17.10211557600244   -1.77402213768135    3.54674372357435
C         -18.01568062424145   -1.10010500616535    4.37815508175594
C         -16.73962269413134   -3.47648087701224    5.26670152858212
C         -16.10110421435988   -4.62104333177395    5.64763486051063
C         -14.42620142175493   -7.33034685754588    6.12120389764229
C         -15.40053310172481   -7.56114199811499    7.00147316535282
H           1.76260830767499    3.38553734941037   -1.45302674933777
H          -0.96635459184650    3.47232115888080   -1.11797579536156
H          -4.59590127821177    3.60871863012263   -0.59512077194746
H          -3.15148158148793    4.42211213849114   -1.24780555809650
H          -2.99773766522454    3.28408334023682    0.12146807858729
H          -3.18089870065605    0.60672059282164   -3.39820422581615
H          -1.11325637679805   -0.36978245492620   -4.28127162632208
H           2.91265850052825   -0.70359847342954   -4.50965241020308
H           0.19913568425530   -1.83956337323359   -3.70226141359076
H           5.71970288520861   -6.76934203743065   -8.36028119447597
H           3.57616558953026   -8.32986605492578   -7.86659674478396
H          -0.88820050815850   -3.51528680128800   -3.72054412163456
H          -0.94620267139914   -6.34150331856098   -4.87954720301108
H          -2.91222326334948   -3.51753094815032   -3.33691441205822
H          -6.06443308729086   -1.93523101346744   -1.19446723611467
H          -3.16739504089813   -1.76213649938061   -1.99968099240881
H          -3.61362447800892   -2.60685690710071   -0.50400745214940
H          -4.37293700382326    0.14877077623707   -1.11706493396755
H          -3.30954768176065   -0.35744216225236    0.01619199124485
H          -4.71544231385505   -2.01167952030521   -3.93810004418124
H          -5.35320357535618   -0.55893882641080   -3.13816781180408
H          -6.91490484275745   -2.85723589386333   -4.02035794085174
H          -7.51286224089186   -1.53206700568617   -3.25959146718864
H          -7.79306304766597   -3.13688998846873   -0.50035184892915
H          -8.85663480612115   -5.00146225140811    0.74662274526338
H          -8.95382437954543   -7.32429712138660   -0.19650981237901
H          -6.94541195630271   -7.99298545913252   -1.45206015477659
H          -4.75527934962650   -8.13274168680776   -2.88295043009004
H          -2.60646032673529   -7.73633836126685   -4.01650295487988
H          -9.74503992234220   -5.01285781340722   -2.20362625900214
H         -11.21051868273073   -4.67082812285140    0.46047495470791
H         -15.20576794753222   -3.78601384600380   -7.29450935603597
H         -17.18060032536921   -3.65691644868817   -5.46109588210023
H         -15.13474128395951   -4.17729335133690    0.50352482383230
H         -12.72441976613848   -5.93877012241814    1.16623508512657
H         -15.48117096734264   -3.05628211590461    2.15457077441137
H         -17.54124330787066   -0.75093896647825    5.30117453225429
H         -18.87751483611716   -1.72847921892005    4.62391143374571
H         -18.35307553975607   -0.23980952485313    3.80234604639986
H         -17.39012015415193   -2.97963236675605    5.96876731673169
H         -16.22817615451644   -4.99697472656302    6.64946381218234
H         -13.50439971222304   -7.89479390109707    6.19948954643566
H         -16.36643466323319   -7.09378156325586    6.93503462308689
H         -15.26120879522539   -8.26258751168211    7.80521711236735
