93
 SCF done       -163.680062290727          0.000657449364
C          -5.22661353995265   -7.96666718021655    6.70592341686617
S          -3.66588892563886   -8.40335417938632    6.15593197516831
C          -4.08633908362807   -8.05448525178364    4.50156422845310
C          -5.39452539756184   -7.61382950447251    4.42865086921392
C          -6.05420478502782   -7.56224329219180    5.69355967806911
C          -7.42266301468364   -7.09653312296175    5.83213136484105
C          -8.19064632909904   -7.26610334169916    6.90075060113367
O          -6.01537478672767   -7.26673039236812    3.25284589370245
C          -6.82675927194473   -8.29143991510406    2.70722288743499
C          -3.10824330073933   -8.23875094802141    3.48070494546446
C          -3.25702070930693   -7.85597381398633    2.19245218877583
C          -2.29410664812722   -8.04299158927292    1.15796699347627
C          -2.52986573334543   -7.60658894124729   -0.12397274641214
C          -1.64982735127395   -7.74236133908999   -1.19687009591342
C          -0.34474182341149   -8.38493833530044   -1.02555578841471
C           0.10333667504510   -8.89070858132632    0.14334281561718
S          -0.79489153914797   -8.85591188651955    1.60499218726288
C           0.26762138048139   -8.33486733540498   -2.30749620100954
C          -0.58040625395279   -7.70658121290009   -3.22106382756596
C          -0.00576527410762   -7.66241176138224   -4.51208796092341
C           1.22615417182552   -8.23500644650038   -4.53941154066998
S           1.74660279714382   -8.85473760074811   -3.01120144209332
C          -1.79305726814525   -7.32346769647519   -2.53596988047024
C          -2.92873008030901   -6.66645407834406   -3.04911189924406
C          -3.08455676656516   -6.14754559425818   -4.29860521133693
C          -4.26407882905760   -5.51693613328114   -4.73777331888032
S          -5.70769650874361   -5.38442638581609   -3.74559689510762
C          -6.63715843367242   -4.54471267196650   -4.96432044155220
C          -5.84486155491529   -4.36784248881156   -6.11289420971731
C          -4.53226551111399   -4.91776403345537   -5.95894102853610
N          -3.84243575055405   -4.71452090730330   -7.11338570840115
C          -4.67407804309391   -4.05941781137785   -7.98855367217938
N          -4.21502975786315   -3.72028084647017   -9.26335265831576
O          -3.06640319984985   -4.05169879255803   -9.53835694523726
O          -4.96837902793049   -3.12399573350875  -10.01417976973401
C          -5.91027731387047   -3.83077044416926   -7.41453465770008
C          -7.97913088299776   -4.19044151394895   -4.72362278696998
C          -8.72481034927809   -3.45316380245017   -5.62148491727553
C         -10.06626259424875   -3.12857889759698   -5.47580874448047
C         -10.78544188060989   -3.42345173530973   -4.22734705163280
C         -10.25441892089731   -4.11666335979252   -3.19901876212940
S          -8.66570322905656   -4.77491284739133   -3.20414015873776
C         -12.06369484374449   -2.81864946969673   -4.38047207809035
C         -12.14847904553665   -2.20597943751968   -5.63204199546828
C         -13.40743159534993   -1.60110914913035   -5.84516449771383
C         -14.22657376372944   -1.76288480600366   -4.77420255340328
S         -13.51271647707979   -2.65481443668366   -3.47027370663585
C         -10.91809491365683   -2.41375014829830   -6.34496017107256
C         -10.66611402267468   -1.97112468916969   -7.66709945510739
C          -9.72815085721648   -2.51262952030475   -8.49048416842160
C          -9.31873231150008   -2.05740534684632   -9.76678141430880
S          -8.31486708820644   -3.12241804210103  -10.71197686217630
C          -8.23068906684344   -1.99740337843681  -12.01866363195503
C          -8.95968742195519   -0.85133616835502  -11.72880086004206
C          -9.57965371452496   -0.87584217308031  -10.45441044094118
C         -10.39648483801237    0.19976112332739   -9.90255200725545
C         -11.37956719400720    0.79432518273491  -10.56524591849788
O          -8.99615327178097    0.17967418173260  -12.62483612693217
C          -8.68443971696611    1.47422762765720  -12.14667199406538
C          -7.44491744470302   -2.33153203265959  -13.17326561683709
C          -7.45891814025791   -1.68007915801028  -14.33482983261568
H          -5.44004895023116   -8.00634253322388    7.75489950072101
H          -7.80394737475267   -6.57511679302049    4.96313244673660
H          -7.84767445957544   -7.79115881937513    7.77613158449874
H          -9.19724745566409   -6.88689907813491    6.93389917632955
H          -7.59278549535251   -8.61704068986455    3.41818815545849
H          -6.22029832142723   -9.15603768642673    2.41530993256999
H          -7.30240132948113   -7.86452587426719    1.82607248003256
H          -2.18826187433627   -8.71252316068806    3.79863317970818
H          -4.16628200439117   -7.35340402014880    1.89616513985333
H          -3.47950367068360   -7.11780188331447   -0.29602892773296
H           1.07017422022223   -9.35819945567786    0.24312900887018
H          -0.46223404864886   -7.24384428313217   -5.38999181785417
H           1.88193889392853   -8.33842326115344   -5.38183466445399
H          -3.76479354967529   -6.55598989328213   -2.36918826135156
H          -2.27916957718002   -6.19214462346210   -5.01573820111403
H          -2.89558413038723   -4.97093882240937   -7.34078663799946
H          -6.71755440944862   -3.34300736714835   -7.92085446068112
H          -8.19803258952274   -3.07831380234240   -6.48140302918836
H         -10.80034687524778   -4.32454690426453   -2.29232841361290
H         -13.69409194046959   -1.07641022446428   -6.73861004998964
H         -15.23297546603630   -1.41141680808728   -4.65593382730291
H         -11.30816157842907   -1.18416588930669   -8.03687778094566
H          -9.25373174178041   -3.43463250110665   -8.18232935704307
H         -10.15956488624161    0.49310883652802   -8.88632886099792
H         -11.64583162529855    0.49642973653571  -11.56605832369322
H         -11.95862902192140    1.59029317507082  -10.12773876162604
H          -8.21057814610649    1.99848172008611  -12.97742269239299
H          -7.99117522352903    1.43285847012188  -11.30383748292876
H          -9.58465882553870    2.01537932796534  -11.84328574378091
H          -6.80154266495423   -3.19134982978880  -13.03816849788648
H          -8.10110594469421   -0.83446916425340  -14.50123322362671
H          -6.82141955892002   -1.98380631082707  -15.14693998199526
