122
 SCF done       -231.113244378978          0.000818417924
C           9.34055090923977   -6.30108724746470    1.47397986352519
S           9.25205843965774   -4.63859068296841    1.85223215838900
C           8.34992448941050   -4.30860900557803    0.39435920280016
C           8.16812610991651   -5.47002415584672   -0.33727573599021
C           8.72948909711469   -6.60362551423271    0.29039805793499
C           8.65791950840360   -7.97062610749383   -0.30533183990897
C           7.51902606960811   -8.07625805831976   -1.32514412375889
C           7.55453196451513   -9.49112824056251   -1.93448405365520
O           7.93804880552770  -10.43253545990602   -1.29829374508138
O           7.11547633080337   -9.62174929953102   -3.17969635910690
C           7.64133561660924   -6.92503358876845   -2.33791160701818
O           6.72132783582034   -7.03666244256564   -3.41605111606104
C           7.45160497780036   -5.57068264693912   -1.64425030644890
C           7.93678113988802   -2.96404378523119    0.17807909087489
C           7.08442533602100   -2.52449465098983   -0.77074596895256
C           6.65680680588050   -1.15770356405534   -0.89892354549704
C           7.50516895487728   -0.04400247064309   -0.72230862286735
C           8.97479136056307   -0.11997092313621   -0.67027812125166
O           9.69326252656869   -1.06663144256000   -0.80294688284099
S           9.64073850147581    1.54301272221729   -0.46905235841941
C           8.02871659555539    2.31540739411326   -0.59472853127988
O           7.87818050633485    3.50268209621397   -0.59244628465882
C           7.00929863149554    1.26263888510586   -0.73589692929648
C           5.65610839529087    1.55397378707684   -0.95499293883746
C           4.83415155148318    0.45994507922621   -1.24113380115527
C           5.31646351676290   -0.85332295445944   -1.22563262947404
C           4.30428709870369   -1.86612172772611   -1.54795553960921
O           4.42548122939161   -3.05831540632923   -1.62709678080928
S           2.73351889524482   -1.05556516753844   -1.85652380089085
C           3.39437150019955    0.58288071952021   -1.52537577830232
O           2.71018585281802    1.56260558228288   -1.53894351182099
C           5.16398762847979    2.93780711546440   -0.91469443141110
C           4.68978078453233    3.53524889449420   -2.05407719865593
C           4.30161767765547    4.88686375187145   -2.00787690156916
C           3.82493583032738    5.73490078543526   -3.00613677141120
C           3.39947261620589    5.43822234390847   -4.39480692974782
C           4.42491216254912    4.66505697902538   -5.25559110194357
N           4.40941651278006    3.22526369607741   -5.05361530893786
C           2.00976107716353    4.72312389116967   -4.33515015787948
N           1.31448373185148    4.65242389335929   -5.59072823211757
C           3.64921438173666    7.03490138019633   -2.39287436472759
C           3.29235070523872    8.22066185116551   -2.92107339225689
C           3.21776087217570    9.44967267126563   -2.08482201845500
C           3.46513993820329    9.23420806926937   -0.62941058288048
C           3.85801335813791    8.04496668609244   -0.12537212568321
C           3.99655330194249    6.92588995540802   -0.97469865194091
C           4.40324417557947    5.61252209731477   -0.75577439977146
C           4.85986462568568    4.95436062846921    0.40046384821964
C           5.23463951735770    3.64611570960804    0.31612364661929
C           1.88693868130482   10.09955927446386   -2.36676743381192
C           1.75873393983028   11.21516793546821   -3.06787862390917
C           0.47328235637266   11.80995262601352   -3.43407152239733
C          -0.43690862419604   11.18289663374902   -4.29201921270587
C          -0.18984775277082    9.89476169924695   -4.95735241936325
O           0.77310924310625    9.18046812390345   -4.87928632844560
S          -1.57937910188699    9.50943519649939   -6.01587520000180
C          -2.43684428727663   11.05477832153744   -5.64012176592527
O          -3.45848393992290   11.36349590458514   -6.17462540269323
C          -1.64406045540530   11.79805795528335   -4.65523609422513
C          -2.01658635753564   13.06086788840242   -4.17145969978551
C          -1.10796412102753   13.67626552801074   -3.29630320817123
C           0.10658926005587   13.07186765626728   -2.95787314273875
C           0.94442686875827   13.84212577379796   -2.03096034206769
O           2.02118297231032   13.54732883467091   -1.59452562170814
S           0.08806416431517   15.35674394718429   -1.60703838854259
C          -1.36304694675928   14.94268760235074   -2.60176478934897
O          -2.34290470276528   15.62731963568409   -2.60842050317062
C          -3.25826490743150   13.70992537333960   -4.54984634941876
S          -4.78272103117974   13.06499864264423   -4.04093470361990
C          -5.63436164374719   14.36862842113165   -4.80942996816445
C          -4.76510833756860   15.22639376191944   -5.44587093998116
C          -3.41313179591564   14.85623546917699   -5.28683952535903
C          -2.30910234656026   15.60142205291440   -5.96232623361145
C          -2.71379904211843   17.06672563664521   -6.16512233279665
C          -2.79883526425340   17.79201912552868   -4.83483993883746
O          -3.75996771967578   18.37217358127569   -4.41181451923580
O          -1.63148761794655   17.75258351604881   -4.18829355988100
C          -4.04252828514902   17.14103721562045   -6.93804586132349
O          -3.92600414179691   16.51770768852142   -8.19905488161726
C          -5.18666495425322   16.45797602796771   -6.18218285175465
C          -7.06532437564818   14.47392592763845   -4.73032070765878
C          -7.85901594089235   13.59378791819782   -4.12603142680077
H           9.84001346625632   -6.97560752303765    2.14081774372112
H           8.52280502990225   -8.72383371581578    0.47156371789748
H           9.60322719050124   -8.19859273348090   -0.80828021246906
H           6.55574722492113   -7.99105862376954   -0.80384542435089
H           6.88656216511531   -8.75127609220204   -3.57849551878955
H           8.63028888480178   -6.97003639263140   -2.80885316574717
H           5.84397512460084   -6.76721734678848   -3.11394511948170
H           6.37770605246629   -5.42116214031408   -1.46972544116637
H           7.79086064067179   -4.78165622711026   -2.31954746150645
H           8.32708292508726   -2.25973433812047    0.90119176814085
H           6.57980306138948   -3.22189300091589   -1.41496370258664
H           4.64467591611259    3.00838636152099   -2.99561959523093
H           3.23600023242606    6.39705960185202   -4.90038704900962
H           5.42459511823454    5.02266484852944   -4.99374067567996
H           4.24421952572888    4.93651299176512   -6.31027743678965
H           3.55505294243904    2.81450882745501   -5.41421802504476
H           5.19012563284408    2.79982951778089   -5.54019571772671
H           1.37572421234203    5.27450214634390   -3.63766762203717
H           2.14916184706252    3.71559333431776   -3.93900734595591
H           1.86160442502145    4.20088268974048   -6.31308203525454
H           1.03437823321767    5.57006425048674   -5.91560367573731
H           3.02497727294733    8.34407891353019   -3.96072302689220
H           3.99382322642864   10.14046175877256   -2.45197393556413
H           3.34081713625755   10.10061766670961    0.00168014665912
H           4.06221342276735    7.93410463320005    0.92930615224149
H           4.92241467308569    5.48739461107812    1.33695809362288
H           5.59382468898601    3.12315950629153    1.19041139915503
H           1.02257276385317    9.56202518929022   -2.00413842748182
H           2.62984989211968   11.77268238996699   -3.38783907494593
H          -2.14072989634010   15.15281190681682   -6.94717745396435
H          -1.37960775683731   15.54092971467536   -5.39395699271365
H          -1.92574409530014   17.56707198626483   -6.74278995767277
H          -1.72218040559534   18.15721981859968   -3.31034825025445
H          -4.30869858421728   18.20203785930605   -7.07135425983942
H          -3.25738812074608   16.97365913904991   -8.72123339249667
H          -5.95817130572387   16.21258704697415   -6.91479419689062
H          -5.59909035901983   17.17120253814130   -5.46509905292982
H          -7.48500655069778   15.34873925761018   -5.20785638866724
H          -7.46075838512416   12.71518699227138   -3.64548806507527
H          -8.92597871091902   13.72417961777886   -4.09408020773747
