122
 SCF done       -186.293361558690          0.000277846723
C           4.10297480496386   -2.53367337253640   -3.93224110677963
S           3.10322716662192   -3.90127235288282   -3.73011054914571
C           2.45787374897533   -3.31684595958856   -2.22612606159507
C           3.02381395726250   -2.08005157581083   -1.90894036129438
C           3.96891315520704   -1.63832706541455   -2.89466771238717
C           4.63710582181581   -0.40467035748159   -2.72334259563102
C           4.37361341478023    0.35091812574489   -1.62009841265053
S           5.18316074161198    1.91250437115973   -1.34482119831252
C           3.43431662338014   -0.07856548459471   -0.63361799627321
O           3.17144769572887    0.67357039076275    0.46433001166413
C           2.77802569511828   -1.27039202112877   -0.78345174244277
C           1.50152210324277   -4.05572472179491   -1.48034609858921
C           1.02421567195659   -5.26440152331872   -1.84382454976536
C           0.07522353317913   -6.07925645350632   -1.12913064363362
C          -0.20156104621153   -7.36395926974971   -1.62629635928163
C          -1.08575692499345   -8.17971864366224   -0.96722003370654
C          -1.72461491786351   -7.74179116873737    0.20452456631241
C          -1.46720095947799   -6.47256162308966    0.70422126127657
C          -0.57447706253217   -5.65728602948729    0.03932704018433
C          -2.60308655365291   -8.79353135448512    0.66752558224700
C          -2.50558632234021   -9.88435174397227   -0.21548015750618
C          -1.48387566419201   -9.60383726454739   -1.29448865706411
C          -2.07912935191932   -9.73059824042980   -2.70398284441732
C          -3.25412126766160   -8.78399738050904   -2.92157507926681
C          -0.21468311121889  -10.47212583919568   -1.12850624296800
C          -0.41294587712022  -11.97765392075114   -1.24495888840451
C          -3.29331396751294  -10.99429521438046   -0.03790163612380
C          -4.16898737218727  -11.06688265274213    1.05732620301227
C          -4.23785002866066   -9.97984664354509    1.93792295381486
C          -3.47302969308478   -8.84621083084070    1.74578718322493
C          -4.96625097967442  -12.25538921334876    1.25501153300096
N          -5.58786104799302  -12.53661112596642    2.45464345147004
C          -6.23013912410491  -13.73099374789960    2.34377143270393
C          -7.01021147593992  -14.66223687169130    3.03150912866223
C          -7.26814352018363  -15.69290472555751    2.12762172879548
N          -6.66442672935794  -15.39858446929849    0.91937804009570
C          -6.02568140981018  -14.20506589326918    1.03125177157119
C          -5.23052384950466  -13.27978959762449    0.35067680559707
C          -7.99186725412420  -16.90967667837029    2.28575946977963
C          -8.66508325199728  -17.28313283708539    3.39258958336586
C          -9.39092388281117  -18.51764662516203    3.57398493535682
C         -10.23944889953678  -18.64187363212469    4.68680727041219
C         -10.94954486889547  -19.79972277759225    4.88292686126861
C         -10.82620741589466  -20.87503236914326    3.98698993008729
C          -9.98398491592122  -20.77246514011500    2.88975634295694
C          -9.28005496801846  -19.60223717482614    2.69289253116092
C         -11.67248537440389  -21.95679045866403    4.44309121072713
C         -12.32230654162775  -21.54839562952156    5.61983925186924
C         -11.92715094983919  -20.13649100255735    5.98567805637141
C         -11.26274493458972  -20.08198619923549    7.37306235051370
C         -10.06107080483024  -21.01240547326947    7.48819433805701
C         -13.14263324433769  -19.19088823921927    5.95948338270865
C         -13.85994957593699  -19.18783835920959    4.61511873161221
C         -13.18487787453823  -22.39127386184980    6.27601684159836
C         -13.40410371733467  -23.68068858682817    5.76934479368624
C         -12.77668588401835  -24.06439517230133    4.57894218877676
C         -11.91366532440986  -23.21642969655684    3.91442561509486
C         -14.28365744471889  -24.59923604090445    6.45565046199069
S         -15.30063911825786  -25.66873287239063    5.55923337312868
C         -16.02562747643669  -26.33734783403131    6.98277896154868
C         -15.47425190783996  -25.75936715244895    8.12497133589062
C         -14.47430834874526  -24.77671050783657    7.82354466770496
C         -13.76199967071468  -24.17126280894333    8.88141788485631
C         -14.07762916710067  -24.47820677144841   10.17249682605277
S         -13.20094988680771  -23.74568290306728   11.53897197425061
C         -15.11420137679321  -25.40784431931191   10.48211842195450
O         -15.44326067216969  -25.69937598900733   11.76553129333163
C         -15.78282624867179  -26.04211089602896    9.47137193932878
C         -17.03980701969986  -27.34289807871651    6.90866411405719
C         -17.51510554198259  -27.87261382824266    5.78117181212834
H           4.73392681514336   -2.45669847819281   -4.79480545135815
H           5.34704986694880   -0.08226531300867   -3.47099318044740
H           5.91541887672551    1.87830699062609   -2.45178546859123
H           3.69575979650229    1.48434149243172    0.45209525193478
H           2.07580568079115   -1.56842400860482   -0.02276866780471
H           1.17147119649705   -3.58569339963189   -0.56547028613730
H           1.39960837303799   -5.69520745160868   -2.76544571499379
H           0.29204548825754   -7.69629523393611   -2.52890940365485
H          -1.95742610561460   -6.12568037446790    1.60210841807795
H          -0.37826315229868   -4.66999401361167    0.42837591223367
H          -2.41639421441592  -10.75624733186528   -2.85986968045117
H          -1.29860452932226   -9.51717260676231   -3.43761970189298
H          -4.04837122445061   -8.99196564194465   -2.20779609652327
H          -3.65293185118176   -8.90360636616953   -3.92661421841551
H          -2.94259093225101   -7.74955463876592   -2.79478894505165
H           0.21389311353566  -10.25107350896840   -0.14722417171688
H           0.50735478669716  -10.14893122601671   -1.88211437780505
H          -1.05049202633146  -12.34790873955650   -0.44701381957432
H           0.55196352380012  -12.47426104557337   -1.16380305949224
H          -0.84995550465078  -12.24752839695591   -2.20285103003255
H          -3.24958164301546  -11.81958442737194   -0.72937076609473
H          -4.92489291242493  -10.00546012948437    2.77177453133744
H          -3.55882234750732   -8.01041030982099    2.42467648027204
H          -5.50506371302113  -11.98084126653734    3.28712028461274
H          -7.34579125466435  -14.61814451519012    4.04779325301929
H          -6.71076666296930  -15.98316735419959    0.10297236186281
H          -4.90600980401891  -13.32766901968835   -0.66907651158418
H          -7.98357023282612  -17.55916392402685    1.41942901322310
H          -8.69527067483351  -16.60004882071550    4.23073957077907
H         -10.33110264347775  -17.81306304653354    5.37513495092812
H          -9.87698403561366  -21.59668136154274    2.19973228963643
H          -8.61579985585493  -19.53077216289655    1.84529753504466
H         -12.00664601588205  -20.34904950162671    8.12793326378593
H         -10.94530287770671  -19.05576581414090    7.56966242950965
H         -10.35519064414742  -22.04577850401482    7.31527078001050
H          -9.61995371319000  -20.93836560855950    8.48016428793531
H          -9.30335718703967  -20.74817399602868    6.75414107053346
H         -12.80247684692542  -18.17911275381726    6.19097583857324
H         -13.84140084543266  -19.49596819306340    6.74184440825353
H         -13.18769848253862  -18.86618831308491    3.82283024342985
H         -14.70844272771346  -18.50796888814816    4.64504833104747
H         -14.22437827543400  -20.18361191386667    4.37237649564882
H         -13.72352566355010  -22.06118949616082    7.15158439477374
H         -12.96758093260343  -25.05426913580207    4.18965604638491
H         -11.43190308894713  -23.53385198306774    3.00175423560850
H         -12.95254796705337  -23.49277737518193    8.65853039557268
H         -12.36033749259801  -23.03979750078506   10.79157328010347
H         -14.88790544349812  -25.20040913413090   12.37772173504919
H         -16.54139584954482  -26.76208939941503    9.72948271290531
H         -17.42500792705380  -27.67464807640428    7.86344625221644
H         -17.14901886976914  -27.56354226064800    4.81595931991279
H         -18.27888366027448  -28.62913514021871    5.79153865940271
