120
 SCF done       -195.997255715355          0.000862277014
N          -5.01616241265535  -15.38126813996992    0.55755080148137
C          -4.36607757613858  -16.58651489371368    1.03881375559829
C          -4.95366817227939  -17.02451347815609    2.37415125178818
C          -4.00876947103844  -17.93209392552864    3.16378137823559
N          -4.64243124728256  -18.21491723896986    4.43727939585860
S          -4.17791696237939  -16.92768060399947    5.47354382202067
N          -2.57389106886695  -16.85179561020394    4.84800896081011
C          -2.62898271690927  -17.22300900377371    3.44294666564616
C          -2.45833433955620  -15.97045642955501    2.57933045760572
C          -2.84117634891107  -16.29800437948116    1.13745457816903
N          -2.58120496467430  -15.19061579612639    0.24168063133150
S          -4.01748413793635  -14.71435812976758   -0.62462856818442
C          -1.34305723123434  -14.81442456122030   -0.13762154774415
C          -1.10696849976165  -13.89633821018458   -1.10653383342250
C           0.17355371375203  -13.46508155558128   -1.51353520167026
C           1.48084222609838  -13.88843229430542   -0.99777676197764
N           2.49986610826593  -13.33080908451437   -1.58232681046912
C           1.96440174772785  -12.49905829753710   -2.53130327636455
C           0.50767631441536  -12.56362228359226   -2.50734935455226
C          -0.04321251331915  -11.68326225921852   -3.49419419102695
S          -1.65737904910695  -11.43397860895753   -3.75266795601838
C           1.10440518846312  -11.08371319813372   -4.13795224747189
C           2.32682203315752  -11.60985277511317   -3.51191076323946
N           3.44071288234549  -11.05560888933530   -4.07159322625597
C           2.99514918622409  -10.22051146883525   -4.96410224222325
C           1.53486734615413  -10.16238879275538   -5.07717091327078
C           0.82352274280813   -9.32323208854303   -5.99963113339900
C          -0.49481659133991   -9.59404841652682   -6.32044660609365
C          -1.19172422988897   -8.77274755911663   -7.21802507189505
C          -2.50958505595242   -8.80906079178840   -7.67599454891408
C          -3.59749383759696   -9.78430459844644   -7.38711375912980
C          -3.15780137108789  -11.24683619926127   -7.56282655853078
N          -2.34434581054114  -11.39529706086699   -8.75819174246737
C          -4.16111791356642   -9.56629433900412   -5.96926703587941
N          -4.76912300903321   -8.24748806782039   -5.88278615900241
C          -2.67939544371548   -7.66490241516318   -8.53552360219945
C          -3.77905542423922   -7.16463168292594   -9.13492727758150
C          -3.68332011771688   -6.01283994976807  -10.07220212839807
C          -2.35594679997973   -5.32562492724950  -10.09028881702570
C          -1.28608827087886   -5.79170895580071   -9.41652925417632
C          -1.39471310291151   -6.95999779678788   -8.62700955064289
C          -0.50583861854369   -7.63146117107329   -7.80777800547925
C           0.84338828030729   -7.38157934100553   -7.47328685104857
C           1.48229214853949   -8.20057738688474   -6.59886501600087
C          -3.89709898452956   -6.65852779983542  -11.42167523415710
C          -4.80058656525165   -6.29059418474641  -12.33478750805635
C          -5.01555688663842   -7.07341926259742  -13.51662271778112
C          -5.52826806189342   -6.62875098045347  -14.80043600433958
N          -5.64089369757249   -7.58086191120955  -15.69442387316464
C          -5.23342015207948   -8.71710024244617  -15.07008022258027
C          -4.80792801986976   -8.42753963936493  -13.69691229648839
C          -4.52515177339588   -9.65988134347371  -13.00851424997113
S          -4.25353077634153   -9.93582076222656  -11.39803677324666
C          -4.70229448639659  -10.66843707437232  -13.99601726903931
C          -5.16240339893573  -10.08745344234294  -15.24726416196318
N          -5.44262066502971  -11.07105666614971  -16.15365909809819
C          -5.22020369414429  -12.19998571492867  -15.53873423817774
C          -4.75817159087530  -12.03905162547356  -14.16232440942174
N          -4.40415595028306  -13.00600293169972  -13.29769868020528
C          -4.78285924922148  -14.39522829731808  -13.47876444871240
C          -6.29226291437715  -14.57118866838417  -13.30773172154067
C          -6.68924607367446  -16.04653269487786  -13.31249843310576
N          -8.10866428984013  -16.13210238454204  -13.01819946136075
S          -8.23383587966931  -16.38125655693656  -11.32249668775858
N          -6.84866975789350  -17.39716245052632  -11.25995546056050
C          -5.89622715774301  -16.85501903858276  -12.21401264031651
C          -4.91575717792467  -15.95353755613826  -11.46656216234219
C          -3.98504670701299  -15.22562098746036  -12.43780482504410
N          -3.12363079716260  -14.29207548373814  -11.76468039445688
S          -3.81455958198364  -12.73706280476432  -11.70848004049321
C          -1.87478144943326  -14.56992873499573  -11.27458787010185
C          -1.30914070738041  -15.76792943446826  -11.17493865167273
H          -5.20288298644074  -14.72221373679550    1.30933582541093
H          -4.52811137645147  -17.35451887512721    0.27357428955911
H          -5.89421537708906  -17.55022626217615    2.21365304094470
H          -5.17171936829777  -16.15334583982851    2.99509083891864
H          -3.85301415586101  -18.86742341524911    2.61845484234375
H          -4.37392650921818  -19.11536834404811    4.82289565877180
H          -1.94923219410714  -17.44276679862391    5.38601579324014
H          -1.81238532239033  -17.91917728110536    3.21975586805342
H          -1.42226341737952  -15.63554115889180    2.63772677544048
H          -3.08280135622400  -15.16827580554835    2.97313135665956
H          -2.27379447142976  -17.18074455021388    0.81029185074135
H          -0.53571080769988  -15.29326652349084    0.39877511377480
H          -1.95284000381566  -13.46124332086365   -1.62398307044502
H           1.64122445286267  -14.59945539681263   -0.20542159306333
H           3.69189904606390   -9.66737886543910   -5.56933215742302
H          -0.98353120185245  -10.44283872276972   -5.87545754439086
H          -4.40901632321722   -9.59112406899969   -8.09513527497899
H          -4.06905688839720  -11.86931132212608   -7.57581258682328
H          -2.55728113260014  -11.56951216459634   -6.70932245547223
H          -2.84788457412110  -11.04096228973046   -9.56583038379095
H          -2.14876025224193  -12.37749463356643   -8.92061090170087
H          -3.35697467887173   -9.72749580764756   -5.23726785785463
H          -4.94347368168001  -10.30678118344878   -5.78252734142772
H          -4.05351494383870   -7.53305331660000   -5.97700668130899
H          -5.21036392101446   -8.12654610777193   -4.97776863275493
H          -4.75035101504182   -7.62404387687989   -9.02619744338166
H          -4.48847967256239   -5.29082065649538   -9.89471622497993
H          -2.28852156421990   -4.44548396368968  -10.71170282965922
H          -0.33883118638349   -5.27325920358603   -9.46135485866763
H           1.35202649186446   -6.53272850564362   -7.90734005904903
H           2.50484334207767   -7.99325886468147   -6.32383865573712
H          -3.24830856849125   -7.49866655632608  -11.61706586254337
H          -5.41083692835352   -5.40572340920579  -12.20523061333869
H          -5.78423272415743   -5.61364998961604  -15.04983705013186
H          -5.35240376994763  -13.13305030617630  -16.05772034247801
H          -4.49084746894483  -14.69264532031363  -14.49283134345954
H          -6.81886396452175  -14.06145776735266  -14.11622074370998
H          -6.62080456112751  -14.11937655034216  -12.37056119413304
H          -6.49855759488715  -16.47023091039159  -14.30398182293637
H          -8.57571171776777  -16.87217566640667  -13.53271967889204
H          -7.09674798061347  -18.36186689209712  -11.45630561880483
H          -5.34524676030225  -17.67834735720733  -12.68101443601513
H          -4.32168772071831  -16.56122002849496  -10.78352519299461
H          -5.47147529770519  -15.23549522848043  -10.86308561056802
H          -3.35680086951823  -15.96072437875140  -12.95499492290826
H          -1.35640436211862  -13.67796058273031  -10.94940377382865
H          -1.79839220986196  -16.67784922487526  -11.47261952046784
H          -0.31138362541973  -15.86016763670934  -10.79124913048599
