118
 SCF done       -191.865117529850          0.000605400823
C           7.51540863780044    8.82933119818152    2.06044658053573
S           8.21845751825977    9.59223930605411    3.57617122971916
C           6.76025349379872    9.16680452315601    4.59103286755231
C           6.14383766075455    7.94699353276528    3.91148032419094
C           6.13300842040006    8.30128023471742    2.41584168013518
C           4.70684983932148    7.74637243762273    4.44593828801821
O           3.73615735875152    8.17444790553602    3.87043037029944
N           4.64969496039237    7.10452408086887    5.62807198561233
N           6.96323675909930    6.78719250944028    4.18734832312586
C           6.58842659013682    5.54686519679824    3.81537267775251
C           7.34486639205765    4.42828759683216    3.94690138288420
C           6.86529716735377    3.13688299453091    3.62839851082700
N           7.41453674431286    2.04386282132834    4.15266555206739
C           6.63367127224326    1.02184932367675    3.77809333503915
C           5.50601788360219    1.48410759516807    2.94116226053006
C           4.68403876639124    0.34352392051300    2.50925845717166
O           3.70379962966280    0.34681458561658    1.78668318974305
C           5.35300381477937   -0.79502432667387    3.14745808424806
C           6.53351333439893   -0.34580236313088    3.90786549028435
N           7.17060088133759   -1.39850374688720    4.46749663323327
C           6.47672657150122   -2.45456396474319    4.10068601114282
C           5.33894500385361   -2.15232345881220    3.27106703824740
C           5.67221379445520    2.83138055279891    2.80105255613239
C           4.95330145047121    3.78378804365018    2.00100110187512
C           3.61289372739669    3.84279123830319    1.92701781003074
C           2.85924772992707    4.79776788277309    1.14691367636502
C           1.55630709859073    5.07073815738843    1.49953728338338
C           0.79608225564623    5.98633896762172    0.74803168975764
C          -0.50461910447630    6.45173202162839    0.91673543262391
C          -1.41490438406639    6.05825953926822    2.03241669579238
C          -1.50478342737783    7.16061274435339    3.11118878031547
N          -2.01307449450538    8.40893211860450    2.56756770862419
C          -2.81555032728263    5.63882856649194    1.55833476681931
N          -2.70028095199848    4.54241577623821    0.61143733607859
C          -0.76996817886025    7.34549975418306   -0.18692177582398
C          -1.83651915430967    8.10846984418429   -0.50099350076034
C          -1.90684259805457    8.85592716854785   -1.78372064669895
C          -0.62954561667044    8.89762105997347   -2.56524798857467
C           0.45333055749122    8.17783984535965   -2.20544260299419
C           0.43130595059205    7.38292099813104   -1.03945437672941
C           1.38660474093815    6.58255790137914   -0.43887800746715
C           2.72794251690283    6.29574353234425   -0.77110062561217
C           3.44168016807466    5.44862511729979    0.01276788412235
C          -2.85822052127099    8.15248140450691   -2.72414016433753
C          -3.01376312426867    6.81918686165780   -2.74840255119156
C          -3.94838021963306    6.15663091107456   -3.59505756504532
N          -4.79250478908198    6.81302311968172   -4.38262474870800
C          -5.62894074354295    5.88469178867409   -4.87806553348404
C          -5.31353945033000    4.54440888414922   -4.34521677033404
C          -6.25653130289396    3.54038167628492   -4.86888122470948
O          -6.32001360622297    2.35847292987836   -4.61495322677468
C          -7.11203995955635    4.34686959610446   -5.76000406320012
C          -6.70075303541284    5.76532375920307   -5.73004551746684
N          -7.47740538687055    6.50651457587079   -6.55697362510606
C          -8.31856119736115    5.65226302151354   -7.09165867981828
C          -8.14266567449439    4.28901474642766   -6.64422265438438
C          -4.20722684478672    4.69929321559127   -3.56281413915196
C          -3.45341867147957    3.70847821105975   -2.83921597736042
C          -2.12147534145806    3.71110334726818   -2.72999083330212
C          -1.34781188940146    2.67926623616863   -1.99808117636504
S          -0.93655334371853    1.27048374511703   -3.14796608992278
C           0.84867637507154    1.35489220407343   -2.79555343095610
C           0.98828379939236    2.02477670380452   -1.42857992052677
C          -0.01462952778740    3.19152222259982   -1.46498168130389
C           2.43096139252622    2.57108117871331   -1.35748852215478
O           2.76982505652141    3.51420828492664   -2.04580606962389
N           3.26812380905182    1.89836739537099   -0.56378554163371
N           0.71034116759507    1.06680607143488   -0.38587828058520
C           0.57554719411293    1.47509842324515    0.92490879411593
C          -0.10265609546884    0.81549003120434    1.85570375557457
H           8.19425193858186    8.03200022174948    1.75871302331646
H           7.48344606040771    9.58366960942392    1.27768335630346
H           6.06422575783970   10.00561034720411    4.58893833083544
H           7.08937159234334    8.96851926588644    5.60929022574110
H           5.36660093576118    9.06035600597743    2.25600454780439
H           5.87661338460528    7.43214900327352    1.80991392017075
H           5.46580443805189    6.72126567006416    6.07151791670402
H           3.74788111120820    6.93713286318332    6.04339375562009
H           7.94290799789247    6.96066711136955    4.37224903321793
H           5.56675094021741    5.47649550083071    3.46645581320903
H           8.32576131741963    4.47884691843372    4.39740659040713
H           6.77761816247707   -3.43673461709173    4.42162326109480
H           4.65240444492405   -2.86760787710271    2.86278997575015
H           5.56777288946855    4.49239085139249    1.45814666692169
H           3.03678485205765    3.16095466542197    2.53991304824475
H           1.12089686733287    4.58946888567758    2.36440945584808
H          -0.97667722663700    5.17936948795350    2.51562549158916
H          -0.50803305031855    7.26886855479018    3.56896746211171
H          -2.19971148826135    6.82201938274525    3.88411208560160
H          -1.28800611994177    8.86954601203487    2.02737901293003
H          -2.28101639604381    9.03451508094746    3.31868401741025
H          -3.35287819136532    6.51162619012641    1.16447567435354
H          -3.37388007025284    5.26742366938724    2.42226421208993
H          -3.61829282179905    4.20603109919653    0.34400252421186
H          -2.22736736328590    4.85497665055068   -0.23023802614555
H          -2.70365065515401    8.17297272367186    0.13847496971277
H          -2.28362438284186    9.86947063824694   -1.60407071540377
H          -0.63703673555308    9.49598356347144   -3.46248333079082
H           1.35624851395092    8.21053954211766   -2.79771693786172
H           3.17062877665426    6.74163471011149   -1.64802227474005
H           4.46026040147574    5.21246305095382   -0.25191852298759
H          -3.40020312186248    8.75826348282921   -3.43488996030601
H          -2.45877170094452    6.19303422677805   -2.06419373066672
H          -9.05990798361039    5.99042737725148   -7.79510512859685
H          -8.72347919979770    3.44645769875499   -6.96383274331715
H          -4.02891799527284    2.89540524398869   -2.41497177577038
H          -1.53397861475116    4.45527924977204   -3.25318043876095
H          -1.95105418364121    2.23630745204176   -1.20216264496974
H           1.33391850790801    1.95554987505630   -3.56530178878903
H           1.25432192712865    0.34496099536034   -2.80660220217223
H           0.39602285042600    3.96135408661260   -2.12256214719201
H          -0.15006012358794    3.61667419847996   -0.46984624524928
H           2.97337842218334    1.17523865017973    0.07849881479165
H           4.21859384939561    2.22293142105326   -0.49163131044884
H           0.06843094627039    0.33343287626848   -0.65753204151982
H           1.12039346471306    2.37833895135938    1.15898469117664
H          -0.64558515318975   -0.08579395134233    1.62936152731145
H          -0.11236629520935    1.14457010515217    2.87714452903597
