82
 SCF done       -146.653832676248          0.000695416886
C          -2.33807241280007    2.45608687912199    0.47193860114149
S          -3.62780327183170    1.33673996227973   -0.17581928539362
C          -2.41848351390336    0.06255382247118   -0.69924746707254
C          -1.06309110904432    0.46046227108706   -0.11679185768348
C          -1.04801548238548    1.99106614545105   -0.17135308002860
C           0.13541438547848   -0.11361453154434   -0.89671530814342
O           1.24362678348940    0.37155951564459   -0.79601727092164
N          -0.07527650857522   -1.26618946182433   -1.56039922501331
N          -0.95030546469964   -0.05779258587645    1.24554175862370
C          -0.04035415187816    0.45336911125178    2.14339673887652
C           0.64517965505642   -0.28850202704312    3.02184035519586
C           1.49949048554761    0.22919244765276    4.07172261755836
C           1.71661648368895   -0.50024539365930    5.20470088551166
F           1.23012772429665   -1.72481273871791    5.44386787499030
S           2.66108014292320    0.27380602696823    6.43223694074374
C           2.77942366806167    1.63972671920936    5.37613543071275
F           3.48413322527159    2.70313339073404    5.77661077627571
C           2.16797125178414    1.50771580932324    4.16253726030337
C           2.27443934132837    2.55458463768995    3.16595516851963
C           2.35015450814652    2.34829348419439    1.83925284934074
C           2.39891240065944    3.36625929555020    0.83989947511044
N           2.34358148843295    3.00582796835184   -0.48898451020135
C           2.30296760767637    4.13412832796482   -1.23845706998281
C           2.20122892221567    4.62053957990457   -2.54189888122156
C           2.19883552208287    6.01215768200331   -2.43830187340783
N           2.29759410895208    6.37494193593811   -1.10842905389568
C           2.36702072873808    5.24229505433173   -0.35858312716839
C           2.42630674887795    4.75871150892169    0.94854443687793
C           2.01967322848379    6.93093545724480   -3.50924476684888
C           1.86924052623713    8.26543463148256   -3.39793225492848
C           1.60334319412051    9.15744901026956   -4.50540449760650
C           2.06229644130769   10.44347937456723   -4.51313268023977
F           2.76214633362137   11.02312859306912   -3.53212697188760
S           1.72499272699682   11.35138915465341   -5.95007480574332
C           0.91913065677557    9.94844342468456   -6.56456434510246
F           0.33621701800749   10.01414654377546   -7.76359481560585
C           0.89063937022992    8.87279223798566   -5.72815749511313
C           0.15528874977459    7.66834907833561   -6.08014208712345
C          -0.48272646522139    6.88314781029330   -5.21562111180177
C          -1.18374008519935    5.63052729136257   -5.60923911900446
S           0.00292128102064    4.42634849458970   -6.37895916071968
C          -0.73065648429025    2.98354970521509   -5.54050366037915
C          -2.05134287837064    3.43775153309933   -4.91857863530724
C          -1.77197107160259    4.86677183537522   -4.43255308681173
C          -2.39680339376032    2.53182920708430   -3.71318992061715
O          -1.63640985227852    1.67383143558803   -3.30231919660534
N          -3.58438741401705    2.77886960980220   -3.14513761010310
N          -3.08721820381620    3.39553022081571   -5.93191689000084
C          -4.31576084541472    4.01039400240156   -5.82123735207951
C          -5.42781998047310    3.57195902242739   -6.40182549107532
H          -2.31746791630508    2.34579524260228    1.55576347143603
H          -2.60183495503467    3.47800071516187    0.21003459374412
H          -2.38586219791809    0.08714615061506   -1.78873134641241
H          -2.77436396482135   -0.90103631808886   -0.33758103857866
H          -1.02276456443585    2.27094964307764   -1.22571341521679
H          -0.17467123695250    2.42055683536920    0.31342977631022
H          -0.99458870408326   -1.61343475199152   -1.76472402680802
H           0.70020038587321   -1.65071136455503   -2.07764741283447
H          -0.99827788612608   -1.07059907328637    1.27003406048307
H           0.04525956113835    1.52642781256538    2.15283436512869
H           0.50896273133489   -1.36278083323282    3.03648685219974
H           2.36522913179011    3.55675127211414    3.56158860367277
H           2.33491145094374    1.33655816909417    1.45619331688994
H           2.22242697964723    2.05277305858442   -0.80040393018494
H           2.13159101472655    4.06735411495556   -3.45723672115621
H           2.36477022131516    7.31985100446225   -0.77503848135609
H           2.48650802860999    5.31962656516295    1.85905352280914
H           1.96334509052657    6.47270837437470   -4.48589540044972
H           1.99776937819189    8.76036797680585   -2.44430717307515
H           0.11090543330955    7.44670880875129   -7.13878895139351
H          -0.46602762696677    7.10641026314673   -4.15904442753460
H          -1.94226799612904    5.81991635866962   -6.37408075189513
H          -0.04850659822229    2.63702941414131   -4.76404982332049
H          -0.86915578664880    2.18988039455239   -6.27270932032575
H          -1.03267511681208    4.81453205199765   -3.62857167200195
H          -2.66044382706051    5.36483931219782   -4.04554331758335
H          -4.24312883616069    3.41959264985556   -3.55448426578086
H          -3.86019448451209    2.25095193067460   -2.32020280588657
H          -3.12716054312990    2.51073899778026   -6.42049537828704
H          -4.31297463263308    4.95046237856242   -5.28612515560681
H          -5.45073334463281    2.65132635007157   -6.95903035133596
H          -6.33747530857895    4.13975398432388   -6.36228060058984
