144
 SCF done       -220.097910142523          0.000522641921
C          13.31364429346547   -1.96016115661152   13.54844220994445
C          14.18177041692248   -2.18595973982919   12.52385000756744
C          13.67562461399422   -2.45956573777929   11.23050576314798
C          14.31863510497168   -2.72099705347611   10.02848830077693
C          15.79292222391394   -2.78259102092592    9.81450746412487
C          16.25312986296245   -4.18922816361456    9.39861468487124
N          15.90262468250848   -5.15225167348698   10.43042960510573
C          16.27191484007685   -1.73160685992882    8.79725461400291
N          17.72447438488194   -1.65415684937302    8.81792504539843
C          13.28945461402954   -2.92223435815833    9.03811732412546
C          13.34118976907801   -3.21783104515570    7.72447154223334
C          12.10980526437367   -3.32891572945896    6.89964246637235
C          10.82992091828666   -3.24811566958570    7.66121499354279
C          10.78983629659328   -2.95434497954835    8.97816873847011
C          11.98504853973824   -2.77486590288359    9.70347271999160
C          12.23627578529836   -2.48901667789961   11.03811889861091
C          11.37353168578920   -2.24717965220835   12.12640561759844
C          11.90953841193584   -1.98963525555699   13.35304765417788
C          12.11755384636984   -2.15725436428634    5.94354198193400
C          12.14650105064520   -2.28565847082134    4.61316360039904
C          12.10978290576486   -1.20511602463559    3.67587594894488
C          12.14480419091088   -1.43316081214110    2.23412237559048
N          12.06377117020917   -0.35156691447451    1.50917190366980
C          11.96583099406179    0.66665571951111    2.40643858630695
C          12.00487543093878    0.16813446795906    3.78652294329391
C          11.91282219866208    1.28546256476451    4.69981218635196
S          12.07026843729292    1.21724294817621    6.34111337313082
C          11.73750144106693    2.44833395752024    3.86066359789570
C          11.80733951736748    2.02921066649656    2.45401574165814
N          11.67429590744528    3.09115993482866    1.61354893418534
C          11.53708161680151    4.12515633240884    2.39347995861663
C          11.55643024219659    3.82373666025969    3.82556796580786
C          11.33346671622360    4.81388711833291    4.84130554705370
C          11.40679261686074    6.16171910554929    4.52541798725512
C          11.12228195799409    7.14244456234388    5.48884391059877
C          11.05610033668105    8.53686842018789    5.42175764073940
C          11.33927518659164    9.49020197720736    4.31667754577471
C          12.76364371045770   10.08791244710861    4.50620220639913
N          12.73530691069095   11.15004037036264    5.48698744735368
C          11.19877144981040    8.92918954067372    2.89754024507527
N          11.18842011632347   10.03353946557154    1.95015109878918
C          10.70068169822746    8.99651740411502    6.74497254097545
C          10.50621431940377   10.24235460110905    7.21962881181077
C          10.11071112780770   10.47883661645374    8.63242430623730
C          10.01698621349074    9.23936913239707    9.47384040132341
C          10.21954324174589    8.00535494967958    8.97963137767117
C          10.54922599395214    7.82920085941223    7.61413932659732
C          10.79129575927769    6.71011865890293    6.84177493651823
C          10.74781455479972    5.33174055915443    7.14563655214404
C          10.99897979975651    4.41822097598534    6.17425389225398
C          10.97533367061768   11.48579305666143    9.34665369964200
C          12.19510811924231   11.87086578855093    8.95771156434615
C          12.98387783758205   12.82614791648257    9.67999520680444
C          12.60076825690218   13.52984084975864   10.90280421525130
N          13.49270379846074   14.37502002637199   11.34541596917280
C          14.52759085308238   14.29683082635655   10.46601197607205
C          14.24195958628098   13.32110903579936    9.40769449491501
C          15.34971964731950   13.26946621683475    8.48383521428383
S          15.45389013858649   12.33283354898052    7.13237418524171
C          16.30347194451889   14.22431023263080    8.99251158777484
C          15.76024855191049   14.84642223244334   10.21068990083085
N          16.60841202230177   15.79105965196869   10.69784537104233
C          17.60723036374874   15.81790601040470    9.85834261473408
C          17.50408753953780   14.86935978427760    8.75375246522201
C          18.50363618044619   14.71950778850807    7.73133307085728
C          19.34033854347490   15.77474675140795    7.42574869658956
C          20.31419008146010   15.63906448738917    6.42022848400899
C          21.26245146439727   16.53048405004193    5.92737683798241
C          21.54167100412726   17.93282018809425    6.35081714081766
C          20.29015166558149   18.82969929328495    6.29902149638766
N          20.68481567359582   20.18645666024669    5.96365654196392
C          22.18853406793795   17.94867785556791    7.74886772980808
N          23.50036312863430   17.33013380606955    7.67755769839214
C          22.00589293439380   15.82408578354280    4.91179462705905
C          23.04543565106851   16.21036190362409    4.14773172921184
C          23.64657276324894   15.30096780424341    3.13595170959344
C          23.06695351112544   13.92224429218215    3.11418840925235
C          22.03252103987716   13.54898020831291    3.88979081702380
C          21.46039500957291   14.46526829137632    4.80529816137072
C          20.43372301889784   14.36387040182044    5.72270903333195
C          19.56749809827877   13.29978681112921    6.06343475480377
C          18.63577694172755   13.47649313656073    7.03328965901873
C          23.45777168062093   15.93183373415812    1.76937795209702
C          24.44495275867354   16.30964276177505    0.98173588115787
H          13.68875246998000   -1.75137920888929   14.54026929152300
H          15.24832361185308   -2.15780533785728   12.69294721543806
H          16.28122815464047   -2.55330920189934   10.76878174646190
H          17.33289287113215   -4.13547573456749    9.18642751169227
H          15.73988832776134   -4.49463199335354    8.48445481639017
H          16.36820529502312   -4.91918275727558   11.30153929918708
H          16.20242533602761   -6.08221740235574   10.15956541296516
H          15.77936324666998   -0.77250967246033    9.02888714033867
H          15.97461419656239   -2.02247701000784    7.78792334562016
H          18.04253495100916   -1.29809285838107    9.71405762091291
H          18.05248976827333   -1.01647020041649    8.10111245752860
H          14.27410288376248   -3.33531571137409    7.19264723295517
H          12.14455577424129   -4.25406535008596    6.30997676668571
H           9.92638716775016   -3.38304126378522    7.08654874056900
H           9.84406063366419   -2.87325595150106    9.49454994577268
H          10.30376860520584   -2.26737422156260   11.97812051766942
H          11.26707491123494   -1.80212266391699   14.20103462942410
H          12.07572593491442   -1.18427529804541    6.40967793365953
H          12.19253105880181   -3.27294265019118    4.16607995296616
H          12.22552032615299   -2.40037011411305    1.76750903395199
H          11.39012756407853    5.09738911593297    1.95687501047699
H          11.70412093902184    6.46013527966764    3.53586464262895
H          10.63904378621615   10.32948247428464    4.40330080108522
H          13.10046560902068   10.42489250044641    3.51675358103210
H          13.43607238195502    9.30205435234169    4.85720987002115
H          12.41090955864471   12.01388124145690    5.06544062132105
H          13.65530277579760   11.32089118900494    5.87925518763470
H          10.29303628053344    8.30213588073968    2.84442979469650
H          12.06820593978003    8.31411892914959    2.65422607544283
H          10.35183212437436   10.59556849332900    2.07039923615076
H          11.19235925918436    9.68608206668983    0.99783946455936
H          10.61717528582147   11.11465626584506    6.59536158901000
H           9.09900128931091   10.92321806523649    8.59570699166577
H           9.77767746345963    9.39176102322896   10.51553101818699
H          10.13855634431856    7.13660597531326    9.61681797992944
H          10.50209317211759    5.01540263981279    8.14851913543974
H          10.95179907361408    3.36553961998681    6.39607006511099
H          10.54519283443256   11.86805796734729   10.26190023141071
H          12.62937238561044   11.47293151435061    8.05019835267633
H          11.67742581704895   13.40368276672201   11.43987073670854
H          18.43820117508450   16.47823190177651   10.03730297428073
H          19.22588851827506   16.71955440034895    7.93334246539890
H          22.26609423617814   18.36746901993585    5.65714728519089
H          19.74045283123572   18.76199965319669    7.25205317147962
H          19.62786477946236   18.47602996849520    5.50393231831818
H          21.26613425409715   20.57900691494513    6.69651827044553
H          19.86987489809384   20.78067583093448    5.86109891326243
H          21.51044321065995   17.45405536374317    8.46469182890692
H          22.33201246910971   18.98339649465008    8.07371265173456
H          23.40885473266081   16.35737692983507    7.40148906612218
H          23.95719993893471   17.35702362013729    8.58230285316051
H          23.46908953461847   17.20255126226565    4.21612688406463
H          24.72792409831413   15.23748561643916    3.32031147463263
H          23.51423848613413   13.23756559048676    2.40940595550065
H          21.63413796294346   12.54622331896337    3.83434707738054
H          19.65799015076276   12.35373590253477    5.55063749239081
H          17.97434221201474   12.67075229340463    7.30543007361776
H          22.42508904960307   16.04523534713333    1.47112650050139
H          25.47932077637246   16.20246746171246    1.26545370338442
H          24.25925135139818   16.74352325242044    0.01396662146439
