94
 SCF done       -150.590886309169          0.000396327127
C           2.32388354718819    5.28567468697978   -9.75359361141632
S           1.76053582431388    4.67684520447652  -11.25027656575818
C           3.03850307822068    3.52099594394004  -11.28802103366154
C           3.85217793619517    3.60107498675830  -10.20807815009435
C           5.03457811241091    2.71548667451071   -9.99207461171083
C           3.44273933602182    4.63615025595135   -9.29691406892997
C           4.14325763652598    4.92615138832725   -8.07656506803914
C           3.81540207464540    5.87939846651340   -7.17730737960431
C           4.56476469172847    6.11593949929564   -5.99243902315984
C           4.24256329621178    7.07045115444168   -5.08646800360925
C           4.94689971953712    7.38008614965711   -3.88443534190623
C           6.09310020518731    6.76212315971785   -3.45139594018550
C           6.78223502512717    7.06435296072776   -2.27516729304987
C           6.23010980788351    8.03204712722715   -1.31178143528535
C           5.12649960595580    8.77739131490390   -1.53072993157301
S           4.19485569799371    8.69056061356941   -2.96892811057636
C           7.09352450388222    7.97729535331580   -0.18517568889508
C           8.11417978849964    7.05809582549136   -0.42294983416561
C           9.01526725273426    6.97130993407424    0.66164650482825
C           8.66108665294722    7.80499616713139    1.67379658712697
S           7.23080063229994    8.73016802137103    1.35605560908842
C           7.95066830088422    6.49727893011043   -1.73930554196763
C           8.86175266237338    5.56422677253817   -2.30149720221105
C           9.05151519171338    5.31363421914392   -3.62135071867536
C           9.94820560992225    4.34645081585422   -4.14567505972977
N          10.13870745634165    4.23608771022475   -5.51086084590262
C          11.02266816845297    3.23048307353180   -5.74886884690143
C          11.68930627695354    2.53187944992621   -6.74963853447729
C          12.45885393601378    1.55975643572875   -6.09858442911003
N          12.26377353406193    1.66842160428958   -4.73324590857030
C          11.39275720163070    2.68285605753063   -4.49592487091840
C          10.72365379734426    3.38159706558328   -3.49461043859149
C          13.31675162795882    0.56297165768799   -6.62404142248648
C          13.60341726622703    0.39914982517402   -7.94067160922241
C          14.43997410099670   -0.60714407218855   -8.50313815191439
C          15.03273870929104   -1.63824670747475   -7.81530706912084
C          15.83862604120283   -2.62647774058066   -8.38033866355779
C          16.13173735541821   -2.63867951576134   -9.81844632680262
C          15.66088440020383   -1.72886262663528  -10.69728734792867
S          14.64658926259620   -0.42006264086682  -10.24751157641244
C          16.96042209347860   -3.77439820421890  -10.01921892908979
C          17.17084561682784   -4.43644551379535   -8.80805619752461
C          17.99941786364991   -5.56986803694191   -8.97795723402809
C          18.37991310166107   -5.73259877462946  -10.27183829126861
S          17.75750496894770   -4.52650571575653  -11.34459428536031
C          16.46837736860279   -3.72549454436260   -7.76633457968300
C          16.38880766130193   -4.02592178638598   -6.38683672133434
C          16.90729557502177   -5.10769924905909   -5.75320774234976
C          16.78494896678405   -5.34030056727403   -4.36005356542084
S          15.93354829187072   -4.20965044209938   -3.34012297611990
C          16.21043660671178   -5.19710656936864   -1.96101224082693
C          16.89365332421751   -6.33729551199001   -2.24109648368674
C          17.27899675474979   -7.30895410289589   -1.17383447595287
C          17.23435480276079   -6.43745046936521   -3.62654746903858
C          17.98785219440557   -7.50226405297375   -4.23950152725156
C          18.03555343023045   -8.78906910006981   -3.85408729293837
C          18.82864341959094   -9.77710851141475   -4.53511082674332
C          18.86706756777615  -11.06272863006106   -4.18906900551705
H           1.79359135812194    6.09443059334055   -9.29303991785387
H           3.10792591353224    2.84610413488155  -12.11821667970616
H           5.13545209130353    2.01454909226837  -10.81665422350157
H           4.92414934827777    2.15039613858789   -9.06699144159024
H           5.94751041461585    3.30663195246961   -9.92512006803119
H           5.01230512072406    4.31275368837093   -7.87870274242150
H           2.95153364663324    6.50787068348592   -7.34217162476665
H           5.42840012519650    5.48389417669835   -5.83574193140538
H           3.36535999878667    7.67725613731106   -5.27527720568480
H           6.46770128112796    5.95245957848028   -4.05872770199661
H           4.75491040397945    9.49195824842422   -0.81324096377599
H           9.87821625047360    6.33098784028444    0.69692221105833
H           9.15706041670009    7.94650125873559    2.61433722056633
H           9.49021398857676    5.04689306785283   -1.58874962518696
H           8.52102362147908    5.90383660557854   -4.35651054005608
H           9.70987264842896    4.83550676334657   -6.19441098407886
H          11.63607592909264    2.68445689822901   -7.80840653449446
H          12.70932986936411    1.08367200551903   -4.04765574763228
H          10.77048718094971    3.22265642699358   -2.43656962206742
H          13.76047843888749   -0.09936786819250   -5.89235356814317
H          13.17083508599143    1.09006925535184   -8.65082251208260
H          14.84617200311279   -1.68730952967536   -6.75242647711992
H          15.88812194455688   -1.76276997975457  -11.75112259056821
H          18.31286666584975   -6.24187599327949   -8.20042049122386
H          19.00376764353116   -6.50388689935628  -10.68000606394652
H          15.84360871206083   -3.31319594969471   -5.77965650884254
H          17.43298632941569   -5.85932445653734   -6.31916634101711
H          15.85286201220817   -4.86642983876610   -1.00545397654695
H          17.23946776979646   -6.82477455439316   -0.20020067729574
H          18.28637160093199   -7.68314780970296   -1.34419112401613
H          16.59316879072506   -8.15596717688156   -1.15538043299075
H          18.55708995597768   -7.22023969543573   -5.11755115923713
H          17.44441191145430   -9.14491807673129   -3.02467533260629
H          19.41945853606861   -9.42673710158085   -5.37276891319776
H          18.29151884554943  -11.44041798352231   -3.35977774388749
H          19.47059921268865  -11.77916705128445   -4.71879116590500
