112
 SCF done       -190.370615309723          0.000921196746
C           8.26703902588100   -2.77599307081071    0.24761660449744
O           7.28263181215223   -3.67187906135729    0.30782188694229
C           7.65274495622820   -4.75187842106602   -0.42984731971065
C           8.89664734006566   -4.52964753008509   -0.96977948566743
C           9.30205461453155   -3.24246361506991   -0.52943459818894
C          10.58281456900042   -2.60608790552644   -0.89280866192793
O          11.35179408806905   -3.08544453172747   -1.67776774915036
O          10.85664001102241   -1.43069291109730   -0.29087595455285
C           6.74577270902759   -5.85909619599178   -0.50067050923607
C           6.96912149704368   -6.97123335475621   -1.22419960354462
C           6.04290129351695   -8.06237884588250   -1.36780941263616
C           5.79828581925996   -8.65879320764679   -2.56793884580807
C           4.66342867507098   -9.54572498313591   -2.42942771536480
C           4.07896631554025  -10.26663650988697   -3.47776714239622
N           3.60220219264138  -10.86406226307469   -4.33487643647686
C           4.25453173669149   -9.53802138260090   -1.12459151994140
C           5.14897744020983   -8.69747347421638   -0.37089829793530
C           5.27659347335482   -8.68430263858102    0.99670184961057
C           4.44241954052581   -9.43152720976642    1.97529302259198
C           4.70021938262512   -8.90668969645685    3.20961735097234
C           5.75607089002877   -7.93056333815752    3.08794235474035
C           6.13430800766475   -7.83534558780674    1.77450892199366
C           6.31140749693937   -7.22193742918653    4.16114374027363
N           6.75682903615492   -6.63354878285364    5.04072085220835
C           3.64072125279532  -10.58296362941708    1.70606379922034
C           2.62047931951179  -11.00489335592358    2.48691311043715
C           1.84225454639605  -12.19885051488193    2.30129396086668
C           0.85634924979543  -12.50034187438747    3.22656142451891
C           0.08196916379224  -13.66331194200769    3.09453622317227
C          -0.95299130090414  -14.17624360812138    3.88341780582749
C          -1.47654706643771  -13.48583856077392    5.10238663671528
C          -2.51711522902078  -12.41228410268062    4.70190201623328
N          -3.67197594321877  -12.99579492115216    4.03810238729405
C          -1.97613062017917  -14.37902447635520    6.25142386338062
N          -3.27199610967285  -15.00955701787649    6.02410655170724
C          -1.37638342284290  -15.40347544411759    3.25534924184206
C          -2.33656692133875  -16.29286599142124    3.58659285449239
C          -2.57725930771397  -17.51278698464516    2.77778315377796
C          -1.71341325870217  -17.64720280238622    1.56238376742920
C          -0.75797904974461  -16.75233968109361    1.24759496552612
C          -0.55131728517645  -15.61358550533735    2.06076641864509
C           0.32779768102630  -14.54842376984466    1.97028032519447
C           1.32950772445233  -14.22030816487278    1.03265005495282
C           2.05655150608151  -13.08458807208211    1.19678022805361
C          -2.40670202807564  -18.77462876578149    3.59622218909823
C          -1.72777495408736  -18.83830673503767    4.73800171484977
C          -1.48555338566269  -20.08332180096111    5.44126997920465
C          -1.09977110086050  -21.23647387157228    4.83977567393263
C          -0.85179149649874  -22.24105807996237    5.86064397023422
C          -0.38515028610921  -23.53493947562160    5.60262594578380
N          -0.01450576009318  -24.59979515991718    5.38340619825287
C          -1.13126514010113  -21.70128456974363    7.08254997655121
C          -1.59316535822310  -20.34737610209600    6.89121332849078
C          -2.12532712459812  -19.52426493707292    7.85292696156164
C          -2.37033254069937  -19.85172789753630    9.27971443810381
C          -2.65720682822153  -18.68207003866055    9.92481554494055
C          -2.68558783520235  -17.61410431321061    8.95392390205245
C          -2.41512349043822  -18.12424382582928    7.71078423868327
C          -2.97544389528183  -16.27504882127360    9.23926385704990
N          -3.21716617365002  -15.17161556353586    9.44934594800836
C          -2.44010954376116  -21.15744240988835    9.85143328164137
C          -2.36890741872584  -21.41735919212734   11.17790259481904
C          -2.47909250971493  -22.73008791895868   11.71174591617661
O          -2.61026762229243  -23.79724059568229   10.90142198391518
C          -2.67507606452356  -24.91214849378788   11.66788150474756
C          -2.58527518268641  -24.56626640257460   12.99649594311765
C          -2.45651489698517  -23.15712686825121   13.04271029076191
C          -2.33361236944291  -22.27945862733271   14.21470908091439
O          -2.28336092446985  -21.07868779089146   14.15064990324811
O          -2.27954700265611  -22.89923380938746   15.40930758415242
C          -2.81022858013442  -26.17949806062672   11.00046709164951
C          -2.89005355714114  -27.35972244860524   11.60946398322570
H           8.10885911034288   -1.85774168452166    0.78242680103109
H           9.47289562223209   -5.17657940804827   -1.59638056803311
H          10.17653226896527   -1.15696833895072    0.33550490763796
H           5.83076659760645   -5.73783144982798    0.06303013760803
H           7.84777078484225   -7.01873854536277   -1.85406549865615
H           6.29777359825721   -8.45816368776504   -3.49740928672979
H           3.39791658495743  -10.05306343439153   -0.73928495798778
H           4.27804329293427   -9.21662073904359    4.14683532197962
H           6.92755544855912   -7.22408548708432    1.39595934753281
H           3.93904701305474  -11.17332599730693    0.85302806896064
H           2.33526029917091  -10.39353822070207    3.33387772437878
H           0.69244370340603  -11.83430643408449    4.06248518819884
H          -0.63050769127589  -12.92804561242675    5.52361850699688
H          -2.00201382753880  -11.66337194208643    4.07739212533200
H          -2.87126805227540  -11.91155223206288    5.60815066218982
H          -3.38523257285258  -13.45394134593547    3.17901554546205
H          -4.34507973274262  -12.27463405620892    3.80355195975168
H          -1.99179479107580  -13.75002481678670    7.15414662815542
H          -1.23603274829104  -15.17088554295575    6.42516552179943
H          -3.87878178142646  -14.34114698762721    5.55202589407958
H          -3.69118837479235  -15.23521542320682    6.92040258366504
H          -2.95184983971685  -16.13256667169049    4.46666280109369
H          -3.63067493678492  -17.48868392910348    2.45527725795424
H          -1.87997134957233  -18.52278566040676    0.95332530072280
H          -0.14445459934218  -16.88663109309720    0.36844283918380
H           1.50897985454950  -14.87358635319090    0.19167898518314
H           2.81884010663563  -12.84158173187013    0.47376043596561
H          -2.85069402077815  -19.66581739830074    3.17483211436358
H          -1.28102491345178  -17.94348373735462    5.14942190876242
H          -0.93504440059540  -21.39303896697807    3.79014345459704
H          -0.97451997010594  -22.18508170622606    8.02533702719845
H          -2.89409321956281  -18.55770194999841   10.96400597987152
H          -2.39762237106512  -17.55816368763391    6.80264226503766
H          -2.61692248133663  -21.98537091559783    9.17987724956935
H          -2.20512722626238  -20.64020371979046   11.90777761609999
H          -2.61570149675531  -25.25829536080818   13.81518085282424
H          -2.32255227025770  -23.86029528185096   15.32737633708186
H          -2.83997775209520  -26.11200934682302    9.92167627308666
H          -2.85949688129326  -27.45615598133169   12.68100456293096
H          -2.98513076557500  -28.27097018107247   11.04706497862944
