130
 SCF done       -222.914600714182          0.000373613181
C          -8.60515543149434    3.56977085870550    0.84923470218985
O          -7.41424254366927    3.27845005055811    0.33694299294639
C          -7.57160498922386    2.25267439113031   -0.53674445744189
C          -8.89697402609209    1.88661850384866   -0.57459820846515
C          -9.57565058851695    2.74556680989355    0.33228799681156
C         -11.00294623872845    2.80218118712991    0.69534280032007
O         -11.45950577673610    3.62736981864791    1.43764867424333
O         -11.78687382853923    1.85759965337510    0.14175469269553
C          -6.41378599478624    1.75903272618337   -1.22774224898277
C          -6.44973803179937    0.73837812531061   -2.09679842070876
C          -5.31491616195759    0.17465499463343   -2.80338014016794
C          -4.14378663170273    0.88901536540727   -3.10834447534828
C          -3.97267997425285    2.35510498780546   -2.95184585784514
O          -2.98990146639744    2.83651891071892   -2.42026517863327
C          -4.98158381313771    3.22118313129891   -3.58602666210295
C          -6.05990081635068    2.83478340671341   -4.33459916154307
S          -6.94837667231512    4.16432105298149   -4.93498041785158
C          -5.84133361288630    5.27536781120732   -4.21536876011886
C          -4.85553711462543    4.64703190643263   -3.53048809407499
C          -3.68965543289493    5.33490446041986   -2.88893966229874
O          -2.84096810666186    5.86182497311044   -3.57135262942494
C          -3.67151513078243    5.35447652218613   -1.41108862814950
C          -2.47807902341999    5.67859003587915   -0.76798540019165
C          -2.41653713984331    5.70640357502294    0.61081851862994
C          -3.54760111051790    5.41992950406611    1.35936147145187
C          -4.74040955165870    5.10917652580692    0.72609652491460
C          -4.80606038646950    5.07393006102800   -0.65419091233289
C          -3.05899974942891    0.20918161040055   -3.65711885702964
C          -3.13417868020162   -1.13188084931119   -3.96936678696371
C          -4.31158069587853   -1.84556478543973   -3.73708841781043
C          -5.37942548525128   -1.17360758213871   -3.15147712450660
C          -4.43311775633233   -3.26303739241494   -4.09143663897067
C          -5.13082420946364   -4.12528734040650   -3.29041372265516
C          -5.25793019547628   -5.48694858485309   -3.64856131711967
C          -5.91338901924027   -6.53415491890110   -3.02927496145739
C          -6.76036787174445   -6.45006933475130   -1.80132630166060
C          -8.22545290554172   -6.79492417443965   -2.12975425396372
N          -9.12255312188014   -6.22964381240363   -1.12893331883505
C          -6.20331676734023   -7.32717621159775   -0.66953810973224
N          -4.78750337515771   -7.05404290482915   -0.48946990650806
C          -5.72908654587217   -7.69434089931275   -3.87168561086281
C          -6.15791747070030   -8.96417146157016   -3.76036082103465
C          -5.95491062069861   -9.96137359081439   -4.84492364594153
C          -5.09634717592714   -9.48801196976628   -5.97816078991648
C          -4.62749286377448   -8.22972998847083   -6.05100725611871
C          -4.93084356163323   -7.28888152017292   -5.03751780932469
C          -4.63705522361609   -5.94983659567936   -4.88361243600607
C          -3.91586621832051   -5.03371377755003   -5.68364193150948
C          -3.81879224756442   -3.73698810990977   -5.29558004775638
C          -7.30390987617793  -10.37726688976035   -5.39738221616117
C          -8.39927219127611   -9.64602616061182   -5.23363837423927
C          -9.72787592795073   -9.99288480588429   -5.72346884371449
C         -10.84843700011563   -9.79416657623166   -4.89764469023533
C         -10.67540159444927   -9.35425306175483   -3.49653753009983
O          -9.72701900014982   -9.66129622422153   -2.80376486062300
C         -11.78788003356205   -8.52536972984112   -2.96409598781534
C         -12.39955267467749   -8.75791782124637   -1.77189553959581
S         -13.69486640720020   -7.66635377015470   -1.47468386199366
C         -13.40897600894399   -6.86862799793744   -2.96233323961788
C         -12.36460617142057   -7.41083535220297   -3.65761615460176
C         -11.80829213527973   -6.88282371680811   -4.91996175364317
O         -10.65846686003019   -7.08433505158197   -5.24223628748464
C         -12.77637168072716   -6.11733923494869   -5.75707761283933
C         -13.36136240496296   -6.74104002590198   -6.85248381879769
C         -14.27537282683899   -6.05064686318175   -7.62851689655574
C         -14.60062315055190   -4.73939594196054   -7.32597541871205
C         -14.00518747384978   -4.11253153976785   -6.24397477444109
C         -13.09696952068539   -4.79860377441208   -5.45696541854394
C         -12.12389617309850  -10.06069990720836   -5.39325544986937
C         -12.30687857935506  -10.49779982130297   -6.68752736309333
C         -11.20273890021857  -10.67583551958615   -7.52376468237376
C          -9.92317341907429  -10.43992629117905   -7.02176264087203
C         -11.34078566743226  -11.11879583344052   -8.89903145703370
O         -10.32208182082648  -11.81776644940133   -9.42203999115992
C         -10.62443435636137  -12.14239759540105  -10.70339886087830
C         -11.85787464552167  -11.63711643583118  -11.02051977873676
C         -12.33377298472666  -10.96940102726212   -9.86219894771400
C         -13.57672447294257  -10.20382487250550   -9.81242718118036
O         -13.96058708157299   -9.50339324259631   -8.90592872728090
O         -14.28656790795646  -10.33655690312040  -10.94556703951309
C          -9.65888317642405  -12.90816764405850  -11.44951796714584
C          -9.81633207653853  -13.30634942093855  -12.70781393395811
H          -8.67930823568703    4.36325811271573    1.56585230951573
H          -9.31123469855535    1.10742143565075   -1.18305072220257
H         -11.28648710104276    1.25484016191532   -0.42315130213136
H          -5.48677441036230    2.26085980770879   -0.98886819856091
H          -7.38750306919572    0.22225422549638   -2.25743019041598
H          -6.37611933861217    1.83909034937015   -4.57292250870626
H          -5.99131309450661    6.32922053635626   -4.33888185392329
H          -1.61052558777216    5.89132413904048   -1.37360071360588
H          -1.48800607587343    5.94932801773740    1.10603811933582
H          -3.50076721667297    5.43929823994318    2.43856527816399
H          -5.62111316469743    4.88834603687902    1.30992726093811
H          -5.74106883167497    4.84340280085007   -1.14482017321837
H          -2.15380632079781    0.76487036283523   -3.85353013484323
H          -2.27310515052702   -1.63340962186977   -4.38385987701658
H          -6.29346423680591   -1.71507436713466   -2.95384747697418
H          -5.56513559096382   -3.77731107776472   -2.36425990188211
H          -6.75337790624708   -5.41207195689468   -1.45210737650612
H          -8.33610071125802   -7.88321239132440   -2.23086181975963
H          -8.48612595149693   -6.33927510289951   -3.09030570233398
H         -10.08449173238051   -6.40419481854127   -1.40094655083956
H          -8.97693037656853   -6.69049754327930   -0.23618259511620
H          -6.29915978789037   -8.38423407448842   -0.92952730662122
H          -6.79764215342216   -7.14775165424588    0.24447986514994
H          -4.64039389344580   -6.06824502122520   -0.30032972501457
H          -4.41990489784053   -7.58169913158508    0.29443993144940
H          -6.72939301302260   -9.31323151592195   -2.91303977563412
H          -5.49609520698016  -10.86200278069952   -4.40916813624308
H          -4.89045279629305  -10.21111541580000   -6.75325260818308
H          -4.01801830576219   -7.91826473579548   -6.88778197047855
H          -3.45453093901325   -5.37335160516083   -6.59981027692544
H          -3.29190111413673   -3.02381229133965   -5.91252332113224
H          -7.32904773745963  -11.31468114313772   -5.93624026009478
H          -8.35089404204574   -8.72010920294308   -4.67837897399047
H         -12.17756521228471   -9.53474062750721   -1.06717113073481
H         -14.01043177932933   -6.02434637693728   -3.23558992122231
H         -13.11036016697012   -7.76240869002503   -7.09638515818578
H         -14.72897331354066   -6.54847302611885   -8.47140734741347
H         -15.31342513857513   -4.20249476843802   -7.93415678113471
H         -14.24825509063754   -3.08637135848221   -6.01047651948078
H         -12.62133582361407   -4.30791871244552   -4.61958068359197
H         -12.98417615969420   -9.94107505471053   -4.74988546488830
H         -13.29956710904740  -10.69654898247881   -7.05375310321472
H          -9.06782132870334  -10.56547940844147   -7.66799260545027
H         -12.37500548466230  -11.71181122084085  -11.95341424506810
H         -15.09403832392879   -9.80275197542553  -10.89014820822835
H          -8.75963528490318  -13.14943600979867  -10.89930271751177
H         -10.70412925841674  -13.07603720897071  -13.27017054457882
H          -9.05745227841741  -13.87647500584386  -13.21291057318201
