120
 SCF done       -198.839415905684          0.000981649791
C          -3.19128666825701    0.37533171069515    2.28754067129588
C          -4.50280438154081    0.66100249214334    2.17717492827484
C          -5.08319287592413    0.67462879787924    3.51843364918367
C          -6.41294143683893    0.96294041303518    3.81613022992904
N          -7.51471443483796    1.16873303426215    4.08060123669278
C          -4.10429348531074    0.35195033173332    4.41777180312673
C          -2.88666927784973    0.12200135763913    3.68581293353185
C          -1.67967919970179   -0.31297150078710    4.18054969108057
C          -1.40226633897371   -0.76728597943807    5.56875012040596
C          -0.05951956091604   -0.69498795218639    5.76077819994543
C           0.55900420700194   -0.29651141579139    4.51130158789100
C          -0.40773580109511   -0.12443730504372    3.55297378820872
C           1.93944063685641   -0.12649033800546    4.34147849479151
N           3.07204351469060    0.01332572433062    4.21815105517332
C          -2.42041731208546   -1.28426179286439    6.43359950977946
C          -2.68503547564583   -1.02337898129667    7.74412740508723
C          -3.95174682036628   -1.63516670312541    8.07207983106887
C          -4.60799661297236   -1.53822197676766    9.30222529204066
N          -5.18979461130059   -1.42451149065964   10.28732942060528
C          -4.46882669902918   -2.26142288935559    6.95298626000864
C          -3.53096923074261   -2.10523450135165    5.90032334120171
C          -3.54505753508388   -2.62208075947124    4.61588851743914
C          -4.73698654118202   -2.81912389989146    3.76361033453624
C          -4.28744831291111   -3.23998988223109    2.52853455594036
C          -2.86677143460908   -3.34371025049576    2.57576750303928
C          -2.41408262579185   -2.93543433979626    3.82495895364463
C          -2.06082008328499   -3.75859896078890    1.50880871454799
N          -1.40203075013108   -4.08422532614141    0.62642986378229
C          -6.00941412926641   -2.37611876327708    4.17110097501256
C          -7.17189970051427   -2.38145429515944    3.46142241935192
C          -8.40429747350046   -1.88168034802459    3.97863108581228
C          -8.47097044556958   -1.19565406198125    5.19305785070847
C          -9.69492613460764   -0.76200297764598    5.69571232735182
C         -10.01692522685110   -0.08015708667292    6.88245536864919
C          -9.10959213477724    0.44937490343282    7.93009977759835
C          -8.38170791151342   -0.68258735156435    8.68565276696748
N          -9.32615861835287   -1.40808646892247    9.52114115024300
C          -8.08539783400768    1.44823862340994    7.34515077703727
N          -8.78768971680793    2.51292571463157    6.65961779205552
C         -11.45047529265042    0.03086312238643    6.91212714914653
C         -12.28561630283013    0.51453704056342    7.85826816630154
C         -13.74993072768113    0.32853542877834    7.73134878486302
C         -14.22232994293222   -0.07247928901704    6.37565117339089
C         -13.37773012123090   -0.52929193387065    5.42718124561651
C         -11.98680638560025   -0.55001282146990    5.67591848400139
C         -10.90789590021290   -1.03139127385804    4.94675770646228
C         -10.82397804238516   -1.69371752041391    3.70551082075838
C          -9.60819661121253   -2.09348548177818    3.24049735578553
C         -14.08362867608916   -0.85117895160699    8.64725415153186
C         -13.49919734318742   -2.04313118035556    8.48922255612848
C         -13.80791048384670   -3.23032358534851    9.22595687013858
C         -14.89138145522779   -3.46703964079143   10.02398309027865
C         -14.90696391875543   -4.86470624465572   10.37435658238927
C         -15.86976185469170   -5.47232340110162   11.18596148338351
N         -16.67890434950213   -5.97130567464093   11.83113209485523
C         -13.85773976719882   -5.49644709377853    9.74362493906121
C         -13.11741969945374   -4.51669365018416    9.01986047750797
C         -11.97377747538082   -4.72929465096316    8.26512684704455
C         -11.64288934089645   -5.96899214605685    7.52060921445185
C         -10.40817222147768   -5.78031612860668    6.93794959915405
C          -9.93414411035000   -4.48454044877665    7.30485365306235
C         -10.90459103287492   -3.82553074963190    8.04857929610862
C          -8.66995390110913   -3.98310655896896    6.99102555427121
N          -7.62090143348782   -3.58267936584919    6.74265963058168
C         -12.59708662303418   -6.98095663464937    7.29523826745502
C         -12.51751169104171   -8.02984100789940    6.42208474250396
C         -13.60089094609642   -8.90458671164242    6.18905256408062
C         -13.51765157264066  -10.20691290813372    5.75261852449185
C         -14.79745430732842  -10.82531430907088    5.92234421076322
C         -15.08545735668067  -12.15710566951383    5.59143873668405
N         -15.31312185608613  -13.24782120637449    5.31625928619499
C         -15.68466163484111   -9.91289412795958    6.46210879696678
C         -15.02061937301305   -8.66058412921599    6.56094141810327
C         -15.64385050300415   -7.45285995220517    6.78553036738371
C         -16.91410596993642   -7.26887193376703    7.46258552334938
C         -17.15222240471804   -5.94756762340995    7.58382511618582
C         -16.08113257890109   -5.22257714010816    6.90007157100925
C         -15.17955860897061   -6.12976968720063    6.42431634800644
C         -16.01030488383506   -3.83480502075479    6.76159837948542
N         -15.93797486068709   -2.69232145727509    6.65274825339533
H          -2.48600699634500    0.26872064980880    1.48624049744952
H          -5.06185570862176    0.85925910284910    1.28186085311722
H          -4.20160313579381    0.34136365001222    5.48630177342660
H           0.48448805318429   -0.95372550575739    6.64954178424624
H          -0.24959554208942    0.20026844907761    2.54292585101412
H          -2.10643806667690   -0.41888653439188    8.41683596137500
H          -5.35547286722459   -2.86687566693340    6.93780224197994
H          -4.88216591126352   -3.44198561621385    1.65787348480170
H          -1.39857123783131   -2.99033044604377    4.16830891947873
H          -6.03931813520394   -1.97945886922690    5.17144906249345
H          -7.19247286236190   -2.80414895057536    2.46571749705434
H          -7.57981572287576   -1.01819092409535    5.76748185815981
H          -9.71251382495059    1.00423794683482    8.65506241072890
H          -7.55407259154151   -0.24064546550591    9.26149835199218
H          -7.95658055953774   -1.39661347723794    7.97872738238993
H          -9.64380304824035   -0.81444332410052   10.28203425238818
H          -8.85910424996050   -2.20597587376277    9.93970065785110
H          -7.37875086036678    0.90928007830415    6.69859121020147
H          -7.52233417412875    1.88546534780525    8.17454097116573
H          -9.15130418348661    2.16896149527710    5.77603009419691
H          -8.15728120365970    3.27844802765295    6.45170292032020
H         -11.92151726317532    0.94307864646467    8.78031291303177
H         -14.29170058652731    1.20621374210799    8.09296446383545
H         -15.28864049124789   -0.08020480916791    6.22145839857317
H         -13.75170932869793   -0.87647897290203    4.47597689344113
H         -11.72321576487435   -1.88040044196221    3.13721765765609
H          -9.53465789263956   -2.60442264416417    2.29120076582914
H         -14.83239594482456   -0.67920426780802    9.40277174417059
H         -12.75650173189476   -2.15952564574424    7.71236819958176
H         -15.64482072401272   -2.76548340087521   10.32650875023280
H         -13.57291694132610   -6.52038557633169    9.89704424496004
H          -9.87151881818924   -6.47203298083145    6.31647832383394
H         -10.77642449814642   -2.85912641201077    8.50239194574581
H         -13.51450933192046   -6.88138730536229    7.85264250798294
H         -11.58214548879512   -8.26310546381062    5.93050226214687
H         -12.63498642748085  -10.71530918810080    5.41239284493848
H         -16.72655259053139  -10.08584423452654    6.65151054260868
H         -17.50122384266067   -8.06591531013645    7.87523754248537
H         -17.97731412391261   -5.47118763625882    8.07918872000645
H         -14.32426534448647   -5.91558597468929    5.81257402950241
