90
 SCF done       -189.521990155501          0.000660082772
C           4.58351853967556   -4.15777999122265   -2.11477832119499
C           4.57464597788341   -3.24301769631535   -1.06541222636310
C           3.40389887574504   -3.03572870263286   -0.24885425593757
N           3.40711041689244   -2.09697516386590    0.71741299481043
C           4.50150068416834   -1.42847761943963    0.93608452100824
C           5.70281238486995   -1.68972071523280    0.17153646092729
N           5.70742903654751   -2.55312361950426   -0.80071083540909
C           6.89242585070277   -0.97761424739784    0.47691682170794
N           7.84011751074376   -0.40194918071958    0.75997927830320
C           4.51414174291212   -0.41447059958029    1.92895182737918
N           4.56730726714799    0.40054725335257    2.73055339434287
C           2.22513181405886   -3.76167249004798   -0.48418213416416
C           2.23647024711556   -4.66875483301492   -1.54931123746629
C           3.41961537061610   -4.87380839068181   -2.35920372549584
N           3.21227345092057   -5.81580951614334   -3.29439876101869
S           1.72476717709009   -6.37425896584221   -3.14474238794525
N           1.23198044384481   -5.47358699992697   -1.92520830804075
C           1.03868788558650   -3.58348303770775    0.32320856604182
N           1.03854505741781   -3.65852466539474    1.62818389346527
C          -0.24765693030163   -3.43896554255065    2.01119393017521
C          -1.10688074754901   -3.17928421343789    0.84757935790182
C          -2.49205060257181   -2.91828379746629    1.27158205298095
O          -3.45270422385879   -2.66247694584299    0.57973314381714
C          -2.40505627485395   -3.04189253691767    2.73945298532653
C          -1.01201434100583   -3.36374689204370    3.14392157015662
N          -0.92152709869041   -3.46444070540715    4.49394810862858
C          -2.12666723652066   -3.22705522154288    4.93899691237834
C          -3.10408539974293   -2.94945670894822    3.89518790696505
C          -0.29250041432227   -3.26779251934872   -0.25446688698470
C          -0.51478183116892   -2.96556439925134   -1.62244460981510
C          -1.68607654030891   -2.47596061851913   -2.10459674568689
C          -1.88607368234016   -1.98809962639254   -3.42301463551542
C          -3.08827278965913   -1.97027698149715   -4.07150353559742
C          -2.87799998283452   -1.52287519308924   -5.42696333667857
C          -3.87627622086466   -1.39262525705771   -6.40443613441421
N          -4.66845898789072   -1.29491717961262   -7.22769667844211
C          -1.54481026865314   -1.25647672548315   -5.61487378547337
C          -0.85638688591069   -1.48120597189596   -4.38081659381670
C           0.44668499429436   -1.12938912781942   -4.12915346786252
C           1.48080037735188   -0.83521547704022   -5.13927979686535
C           2.60008917412812   -0.41101420922064   -4.49195608627204
C           2.33201337966593   -0.40529685453642   -3.06761009472638
C           1.04803675700563   -0.82721777445857   -2.85232633095312
C           3.26877656892287   -0.05740668897238   -2.08783880304921
N           4.05426582804604    0.17636064288567   -1.28370183634489
C           1.36583500207618   -1.05539241589267   -6.55261790800866
N           1.72069857435279   -0.15916034581746   -7.44577098247856
C           1.37666403869178   -0.67648784128745   -8.64902755602327
C           0.75260610730847   -2.00629530819751   -8.49090696645279
C           0.39556316052840   -2.57745997261870   -9.80516650535966
O          -0.12533630349820   -3.64065785150099  -10.04496218928604
C           0.83590509309565   -1.51866052078543  -10.73440419586628
C           1.42489146662199   -0.38063314039125   -9.98320455416231
N           1.85224097580692    0.58254228494071  -10.83792501668101
C           1.58093484260548    0.12703939824770  -12.03263856372130
C           0.95385634803772   -1.18501572090888  -12.04223731274453
C           0.78229082090428   -2.27967273633312   -7.15739055976130
C           0.46928481680615   -3.49207007132689   -6.45363851750668
C          -0.64617243440749   -4.20762375099933   -6.65468685984249
C          -0.87990199665900   -5.49747203638307   -6.05627064454921
C          -2.16390601947777   -5.89412492374414   -5.63725723716904
C          -2.41989058209850   -7.22835578847097   -5.14974585721812
N          -3.67241017341901   -7.58118472413326   -4.78380678603726
C          -4.61734506013687   -6.68661206566615   -4.83892736993103
C          -4.34204378763744   -5.33106569809572   -5.25193659276413
N          -3.14907208121556   -4.97496187584797   -5.64700464752892
C          -5.37341186896924   -4.36016909262573   -5.18506532942565
N          -6.21991776592035   -3.59595591626076   -5.08206965975101
C          -5.94253254573164   -7.04727083398331   -4.47725829857053
N          -7.02310973457579   -7.29984755117891   -4.19669022848525
C          -1.40577360726777   -8.17690014548023   -5.05949299397158
C          -0.12995354896027   -7.79398473935556   -5.45010636571502
C           0.14013810291471   -6.45263211244473   -5.93118803234102
N           1.42569885356585   -6.30668658101546   -6.28102792596397
S           2.19232929913594   -7.68716826631723   -6.04131813030475
N           0.97817454893778   -8.55191061133909   -5.47003570954622
H           5.47908628381460   -4.31276674518986   -2.69283074679412
H          -2.33063491521142   -3.24643481492975    5.99544979832008
H          -4.14034524899937   -2.72784813793608    4.05682560627127
H           0.32251573352599   -3.10425704107370   -2.29208701067787
H          -2.55721863472518   -2.47148474119038   -1.45868354561288
H          -4.03959109512650   -2.26759217115378   -3.67239021563269
H          -1.11918112524073   -0.81601089333236   -6.49496508945413
H           3.53694149464102   -0.14406477014855   -4.94247124901467
H           0.53287611456185   -0.81068941773496   -1.91159653530645
H           1.81959045870250    0.71134845078183  -12.90431583790738
H           0.66261017442171   -1.72901795509944  -12.91867149304153
H           1.20751967213911   -3.82556524587572   -5.73392308344721
H          -1.43943886295557   -3.81956246321893   -7.27820837840895
H          -1.62078094655743   -9.17376738609009   -4.71447489678854
