112
 SCF done       -208.631384358264          0.000637995023
C          -1.15032581929045   -0.68552848627431    7.14144425126266
C          -1.86935455121833   -1.81078296669709    7.51929574028690
C          -1.59472370149404   -3.12029472239391    6.96264795977390
N          -2.39900481977455   -4.14725551296498    7.27019303562067
C          -3.38469023493298   -3.96571231457913    8.11457540774213
C          -3.59779651781515   -2.68848453279218    8.73800364830182
N          -2.85872930233768   -1.65908972680861    8.42821788126338
C          -4.62459819146508   -2.54900760202863    9.70695856589609
N          -5.45993458887242   -2.48517713771288   10.48788874730656
C          -4.22035475870067   -5.06448606502178    8.42786257479137
N          -4.89142861071351   -5.95035773536020    8.70852847087543
C          -0.53836166667617   -3.32593272350472    6.04584105113832
C           0.15330910794852   -2.16239865957679    5.64858958107044
C          -0.14779916736760   -0.85627983008069    6.19576494577379
N           0.64544676630713    0.09075610532555    5.67909133562342
S           1.65145968683113   -0.58713119544904    4.63480147353269
N           1.15645086859773   -2.10605322594949    4.76869020275720
C          -0.17905700514245   -4.59285915442165    5.47327506225205
S           0.42712829220723   -4.58524670567758    3.84049126451840
C           0.67436433984198   -6.29296884356036    3.85723253368470
C           0.31889444167179   -6.82988214320940    5.08180753614990
C          -0.17560100658629   -5.87694683006299    5.99553209253019
C          -0.57428285874301   -6.25863638803840    7.38535217982275
C          -0.04158846174959   -7.63715588318448    7.76116697753590
C          -0.41519442756876   -8.62646273166526    6.66514040001396
C           0.39350555209826   -8.29194215375970    5.40696203265417
N          -0.16276685400130   -9.11799223219567    4.30380979473603
O          -1.11369053113054   -8.69132045445215    3.70181350449090
O           0.35505775538568  -10.19657749257028    4.12689665831544
C           1.18208373745617   -6.94431050682687    2.66614291390252
C           2.11045261858509   -7.95815116176978    2.73209072144628
C           2.59304545070763   -8.55726967241010    1.55123570695118
C           3.51026308397842   -9.58171394901604    1.33479663799275
C           4.28913133357187  -10.40727421571171    2.29822035501059
C           5.64416457230108   -9.73128287019189    2.61679083283381
N           6.55646090947106   -9.87035903993099    1.49495599145333
C           3.55189914008198  -10.73366470009302    3.60543213266920
N           4.17241005495968  -11.89907778145279    4.22152299119690
C           3.65474635280635   -9.70930978801546   -0.09627703123844
C           4.48214449320810  -10.47383656511082   -0.83332559265942
C           4.52782640564630  -10.35987485638811   -2.31665200572030
C           3.48222448697068   -9.46373473785612   -2.90438395587246
C           2.66199900721053   -8.70654137949176   -2.15036220495461
C           2.74269293380124   -8.76069597209186   -0.74009436017013
C           2.10372773962675   -8.06400357354786    0.27095218787134
C           1.15899850946473   -7.01708130504290    0.23499592762968
C           0.71838141851739   -6.47349241669405    1.39882399726829
C           4.48118200342435  -11.72264536140026   -2.95398388622817
C           5.43069885424996  -12.18510615605567   -3.77134417373053
C           5.42963389479693  -13.47933872582965   -4.38477229791414
S           4.23034024520713  -14.67294497959798   -3.99764154752246
C           4.98131225451650  -15.85390820537399   -5.03283897038437
C           6.06210799771114  -15.29355796688982   -5.69660767671723
C           6.31934807169465  -13.96323644549119   -5.32210816234118
C           7.42442550526659  -13.23245987407203   -6.00932386351756
C           7.26299986429707  -13.49269043744686   -7.50827017700691
C           7.39172436512008  -14.98044403806785   -7.84709663506762
C           6.92643839473776  -15.93618640351591   -6.72489555913726
N           8.15705834269728  -16.48343964452320   -6.05690048790541
O           8.38692250154756  -16.15726735742931   -4.92249409412171
O           8.86306219058214  -17.18335904160793   -6.73966215378465
C           4.45690910742395  -17.18798778603446   -5.04034446670167
C           3.10152568030198  -17.42167820705385   -4.70037462677855
C           2.54212313532737  -18.75169260363033   -4.63562998486215
N           1.24312108152561  -18.91769446477291   -4.30144297756245
C           0.51896513086236  -17.86439634216223   -4.03505879158454
C           1.07160202590656  -16.54009592537934   -4.11028083817055
N           2.32686313565741  -16.36096331228770   -4.44251963021546
C           0.26763712624403  -15.40724292646008   -3.83986721971058
N          -0.39927471038422  -14.50346463980970   -3.61236068124462
C          -0.84445478154212  -18.03028002021757   -3.67767503625827
N          -1.94635698314946  -18.12473816563070   -3.38077555705180
C           3.31737804188518  -19.87606039783103   -4.88582479805148
C           4.65751881331311  -19.67360770082092   -5.18841040245980
C           5.22845159554595  -18.34309995221570   -5.27053532545739
N           6.54046309590790  -18.39734153475681   -5.52141732208531
S           6.99981128406511  -19.92748713829159   -5.65021014187651
N           5.58117900041650  -20.62041166322174   -5.40137783457858
H          -1.38164573248495    0.27843176768849    7.56019552137733
H          -1.66474528920656   -6.27809074669534    7.44162697660323
H          -0.22473325642319   -5.50299738645109    8.09207765273585
H          -0.47997171669633   -7.94913485767603    8.70915957297142
H           1.04375212560844   -7.60926013409816    7.88094210920496
H          -1.48192310241977   -8.53801585178141    6.44711236192298
H          -0.20504321386592   -9.65310652581563    6.96968140682163
H           1.42761421768885   -8.62428910146652    5.55231241839245
H           2.51823639472493   -8.26060267465697    3.68144334602641
H           4.51867767027971  -11.36207747829659    1.81264071056672
H           6.02543286394425  -10.18836358083805    3.54151958554912
H           5.47845853644568   -8.66553741986216    2.79393666305704
H           6.91787128582331  -10.81793185526823    1.45834334452813
H           7.34495684578131   -9.24210585139423    1.59402401302195
H           2.47991301795512  -10.86761516339893    3.39953613804402
H           3.66953477139266   -9.90869801624250    4.31283357616488
H           4.01458738294219  -12.72004568601693    3.64528171155733
H           3.74828054315277  -12.08168974840532    5.12450558421537
H           5.17257206201095  -11.17055199618352   -0.38335633218115
H           5.51055664438772   -9.92150004779258   -2.55913684362130
H           3.43480572871619   -9.44045537304450   -3.98232491472698
H           1.93843925812612   -8.05080444171764   -2.61212186133110
H           0.79827275065501   -6.65550345420810   -0.71607525744232
H          -0.00752097186224   -5.67489279572546    1.39430211454241
H           3.60917011706747  -12.31951960698345   -2.72726479517159
H           6.28882181282987  -11.56475891319987   -3.99832260110251
H           8.39033089424403  -13.60609499465059   -5.66010882716268
H           7.37993444420685  -12.16282565359221   -5.80955328751187
H           8.00862738712065  -12.93014591948102   -8.07073875483420
H           6.27675248080939  -13.13224227983233   -7.80907492830325
H           8.43099557568233  -15.22353434533107   -8.07963544194927
H           6.81060089168011  -15.18956434313424   -8.74576326668740
H           6.44106468018965  -16.80263980353186   -7.17645410467462
H           2.89499065070238  -20.86303646736934   -4.81230842579959
