130
 SCF done       -215.165265604171          0.000362116961
C           3.54350820884224  -14.79110637545442   -6.41943755598086
C           4.32563824679641  -13.65596107165783   -6.58131963417224
C           4.78847436021679  -12.87931578902413   -5.45006535255665
N           5.42697022706781  -11.72057063196202   -5.65553804795625
C           5.68624888524414  -11.34032732096070   -6.88486389724295
C           5.32035546871741  -12.16345668245486   -8.00383427089029
N           4.65156524411631  -13.27170272001004   -7.83625645699623
C           5.68818680626789  -11.75897056431542   -9.31286022096880
N           6.00683776166766  -11.39366452822317  -10.35059990774175
C           6.35190481422931  -10.10869583822753   -7.08778313482067
N           6.90821067710188   -9.12259104021935   -7.26822301123475
C           4.51817712891726  -13.28104449685453   -4.11964089170462
C           3.67956272312876  -14.40522077205911   -3.98008031269308
C           3.20465678024491  -15.15771015751725   -5.12244718186225
N           2.44592966887471  -16.19511796163918   -4.74744478134935
S           2.34944401885987  -16.21656301358846   -3.14792827435821
N           3.25432393358028  -14.93152946575871   -2.82994457291063
C           4.97212846234540  -12.56170413430518   -2.96950328813519
S           3.86013985679170  -12.43388624024387   -1.63658171644270
C           4.93753835289229  -11.37610882638466   -0.78131236851731
C           6.11831314774120  -11.18199299562005   -1.49347783667072
C           6.16039194167364  -11.88762610666374   -2.70767439800052
C           7.41694535263429  -12.00759061276914   -3.52777715538284
C           7.71806949738309  -13.46772327851585   -3.87871299576514
C           8.60653442195571  -11.42009338337787   -2.76389039395736
C           8.24050306102351  -10.07628482794264   -2.15655901489657
C           7.22591385795537  -10.27882568067077   -1.02297327120350
C           6.71670559456870   -8.92942304922549   -0.59930566089107
C           7.16160563460585   -8.26532566056132    0.45151288309455
C           4.58910128066620  -10.84012964477867    0.48538304165786
C           3.44561766967997  -11.14429595395284    1.14216089898235
C           3.01454763946796  -10.62203009370250    2.40642758212888
C           1.86538294342914  -11.13306169979203    2.97683267101260
C           1.39683054328784  -10.63418467558144    4.20425108014388
C           0.27941882965706  -10.97086153576623    4.95889674725390
C          -0.72007612414154  -12.02924652022862    4.63424708163853
C          -0.95771837840411  -12.99429617689806    5.81064037511249
N          -1.23293371868742  -14.32314611635908    5.29688077831444
C          -2.03690398082263  -11.39947576424253    4.14290665155957
N          -1.82214698976082  -10.79857002090369    2.84037125798525
C           0.27298214838090  -10.09457679929962    6.10453156869778
C          -0.60698504825198   -9.93638721482202    7.11189510221983
C          -0.36171051247431   -8.97631130283426    8.22686433880877
C           0.84467256627779   -8.11324265805854    8.05332523073488
C           1.69559289811686   -8.25140199109284    7.02006867146289
C           1.46064639393061   -9.22697856399772    6.02113173355527
C           2.13008422399519   -9.56109007947593    4.86256870995105
C           3.30824326860517   -9.05849036420401    4.26015893078774
C           3.73104447914730   -9.57415882606798    3.07987234960917
C          -0.20444815191403   -9.84507938144679    9.45480995005304
C          -1.17317468863989  -10.01260554519741   10.35844270161146
C          -1.13642857630696  -10.81861109247856   11.54789360564755
S          -2.25830139726861  -10.36320145195040   12.79138382194096
C          -1.64921439414692  -11.58219967116983   13.87511796885833
C          -0.59267172269802  -12.27302971782017   13.28712530705378
C          -0.35020782325639  -11.88870687238488   11.95118959772956
C           0.57640765778796  -12.65378814296830   11.04108074139757
C          -0.15760036112342  -13.12683878946449    9.78143303320148
C           1.15535048703666  -13.87823778498531   11.75688384636589
C           1.54427996421420  -13.53793607219733   13.18450527749425
C           0.28172921393303  -13.25623891199045   14.01306863879029
C           0.72576579877364  -12.77644475380582   15.37270960526333
C           0.97537419811827  -11.51928239329446   15.68546866689131
C          -2.31982696168517  -11.70346489325651   15.11716638935556
C          -2.20862459518016  -12.72759705224692   16.00077906031634
C          -2.91090054931415  -12.82495546888952   17.23245503654035
C          -2.70079371575269  -13.96915566105872   18.04864504917434
C          -3.39188719714713  -14.15295432788544   19.30381982672109
N          -3.17355704626351  -15.26796966941482   20.03886708727620
C          -2.32478076862478  -16.15509373899209   19.59712067025826
C          -1.62054647733860  -15.96184003200685   18.35890838127462
N          -1.82652648743076  -14.89308350882222   17.62612887201661
C          -0.68622923021333  -16.92443035404624   17.90882964794961
N           0.06946809392719  -17.71146452178689   17.55691048305405
C          -2.08961200105791  -17.33441114206446   20.35042092048549
N          -1.86906592292063  -18.30192842713338   20.92227455394181
C          -4.28897799080382  -13.20719939656704   19.78064911095380
C          -4.49904936118343  -12.07161095508370   19.00671773611110
C          -3.82051053625552  -11.87060143321427   17.74049316146401
N          -4.17878474674258  -10.71506148061491   17.17548726790645
S          -5.24159895445100   -9.97184684128462   18.12219822923069
N          -5.31831643625925  -11.05340367024248   19.29819665763020
H           3.20756367927628  -15.35069384522681   -7.27505397970488
H           7.28619408445780  -11.43802542205286   -4.45318134122791
H           7.75616312532104  -14.07270556619825   -2.97459523491311
H           8.68254914426245  -13.53216069715369   -4.37798248920848
H           6.96563542783808  -13.89087995463616   -4.53787088595483
H           9.44855380496224  -11.30830846816584   -3.44869795809751
H           8.90773014677618  -12.10759958233626   -1.96931260218967
H           7.80508773503992   -9.43535462975315   -2.92625098386223
H           9.12494523321143   -9.57543851465837   -1.75993515754095
H           7.73721990258403  -10.75235927269428   -0.17475589143058
H           5.97718411090339   -8.49024833231605   -1.25558127026337
H           7.90227281346372   -8.68247774418290    1.11548891869138
H           6.80551381376931   -7.27902027147246    0.69579330298737
H           5.30779245766317  -10.15857472828883    0.91394321388667
H           2.77437579956776  -11.85975443152789    0.68108768498769
H           1.31612958247792  -11.91443034134697    2.47263214147204
H          -0.32702215514853  -12.63033268094937    3.81013203379913
H          -1.76198907569107  -12.60563624174098    6.45859590555718
H          -0.04637982298298  -13.06062416141466    6.41178834948908
H          -2.07808173950928  -14.32090696447840    4.73614552220675
H          -1.36203221678372  -14.98260801756569    6.05573116224661
H          -2.40248796698073  -10.68592970551235    4.90246128061190
H          -2.79310259780686  -12.18103916239110    4.02075449401135
H          -1.10701898677773  -10.08088659841884    2.90058161119330
H          -2.67306801988752  -10.36867987597458    2.49619331514024
H          -1.50706003730477  -10.52909503713272    7.19100431166840
H          -1.25147592470987   -8.34756258912005    8.36404941844523
H           1.01293302334363   -7.37922774279990    8.82658373746350
H           2.56228472300355   -7.61239410052627    6.93110578668911
H           3.85574851320877   -8.26384438206939    4.74585631074198
H           4.62254926992128   -9.18160542215540    2.61643335382064
H           0.74794416813196  -10.34407939853016    9.53193791177866
H          -2.08789355167478   -9.44042532179905   10.24949521717060
H           1.40761970830824  -12.00071781616478   10.75062703996517
H          -1.01121478981923  -13.74108432242150   10.06052636976856
H           0.51431117905525  -13.72766453706696    9.17252138020249
H          -0.51452541204849  -12.29621210551740    9.18124920886321
H           2.02177993488473  -14.23993791589350   11.20094229552354
H           0.41068183825046  -14.67743859383680   11.77096133091091
H           2.18638601752251  -12.65427301278139   13.19426102863945
H           2.09534793484516  -14.36139820732715   13.64045099680597
H          -0.26462088344441  -14.20104956791831   14.12726327629675
H           0.91838080385870  -13.56179297410690   16.09105489986764
H           0.81275758973306  -10.71112034094375   14.99121581234204
H           1.34432390013997  -11.24158636999536   16.65748634017880
H          -3.02320601005667  -10.91267201887590   15.34368306898318
H          -1.56547328115001  -13.56689312112959   15.79637596896708
H          -4.79954058088987  -13.35728750562440   20.71609080820605
