98
 SCF done       -197.599691099127          0.000576128106
C          -0.79200316320922   -8.40312805277901   -6.30163676652684
C           0.20573950236085   -8.34816292164605   -7.26931299434919
C           0.92744427227139   -7.12840583136171   -7.54403352154172
N           1.79114577112940   -7.08190956063345   -8.57080397457255
C           2.06886158852738   -8.17819365032838   -9.21760984839610
C           1.46036239107418   -9.43429810613602   -8.84210156959181
N           0.52836985735516   -9.47814357033181   -7.93407919749465
C           1.84711294884024  -10.62666298366189   -9.50776616419369
N           2.18959672478769  -11.56694366745900  -10.06372490836317
C           2.93646659078243   -8.13167624437818  -10.33887615786853
N           3.63072884200755   -8.14481001324465  -11.24918960425983
C           0.69135946213320   -5.95530315899227   -6.79790655201064
C          -0.31453857924647   -6.02066016029185   -5.82127013796984
C          -1.06157046414495   -7.24305076640991   -5.58954550711069
N          -1.96355235956800   -7.08787671602419   -4.61021024039680
S          -1.86902845426733   -5.59902836858219   -4.04885492063735
N          -0.69452299794699   -5.04702737819022   -4.98584471438334
C           1.50125452593309   -4.78542786058302   -7.01584690079527
N           2.80078903808633   -4.89013185152574   -7.20941491009880
C           3.27367823159664   -3.62630422085400   -7.31275282707910
C           2.18350565412568   -2.65394986819684   -7.16803035785279
C           2.67062441125806   -1.27874209406118   -7.30742099156319
O           2.03006513868741   -0.24551938564198   -7.26839665477165
C           4.11514221396214   -1.47870232046156   -7.51684493769574
C           4.43886831338131   -2.92939984127017   -7.51285715153366
N           5.76180303449177   -3.11925814820736   -7.73344457772120
C           6.26482177109477   -1.91974125558956   -7.87854262590875
C           5.29002629451754   -0.84849702035677   -7.76513627411007
C           1.03316680942708   -3.37991169531246   -7.00568341475071
C          -0.27356180045229   -2.83345453997895   -6.93235312693475
C          -1.43135417358787   -3.45393026912496   -7.24485465132834
C          -2.67537644931836   -2.76778940505915   -7.21912240063556
S          -2.68984532874169   -1.05638671916972   -6.91353061011536
C          -4.40967813867618   -0.94903354169807   -7.18550737969662
C          -4.93376757422669   -2.20178013718665   -7.46254796377352
C          -3.96196689683755   -3.22094574614565   -7.45839493734726
C          -4.46338634642620   -4.60746293686234   -7.75266851473253
C          -3.46477525889183   -5.63447630009974   -7.87255800162791
N          -2.70448883536057   -6.48494358514321   -7.96849903988090
C          -5.29725518598032   -4.49848974025533   -9.04695413589016
C          -6.52192258867697   -3.60519769801669   -8.81783960951785
C          -6.36842179898290   -2.61427601334972   -7.64747983416011
O          -6.82130762096785   -3.28229254004594   -6.47412133221087
C          -7.06841000494953   -2.42818680142568   -5.38506636060494
C          -4.90162628445057    0.38335509153491   -7.13745541602939
C          -6.11156113277904    0.88129818292469   -7.48057351476356
C          -6.40379184824038    2.27550880364510   -7.47615944025844
N          -7.64552003517964    2.68528207631171   -7.27651447552767
C          -7.59520381317400    4.03214518147989   -7.25830533994599
C          -6.22774523678524    4.51896944222163   -7.50052743866555
C          -6.19812620569633    5.99359882505779   -7.47221009869670
O          -5.24941830700309    6.73367410633552   -7.60932827891479
C          -7.60774343621515    6.34027785454260   -7.21591518766397
C          -8.42351876773533    5.11355025043754   -7.08732768390748
N          -9.72292817206651    5.42537686627786   -6.85877239444259
C          -9.76275497984600    6.73510486564614   -6.84531344707044
C          -8.47778227733225    7.37080203927350   -7.06751315915176
C          -5.44747166355261    3.40155350411834   -7.67738158553181
C          -4.08425417568761    3.28992860738492   -8.07965370832389
C          -3.28072336204977    4.36280387570307   -8.27169748140987
C          -1.91570497772499    4.29123201268262   -8.69508855339626
C          -1.31185372120062    5.45876025236623   -9.22668505964290
C           0.05267225110960    5.47035431311065   -9.69610058771105
N           0.57782171558852    6.59968160814086  -10.21870556992748
C          -0.16719343446509    7.66640812423583  -10.29394869322842
C          -1.53142194696335    7.65515821401515   -9.82611342042424
N          -2.05382659426859    6.57329983012425   -9.31666727692803
C          -2.31372398296332    8.83298253480656   -9.92988207611988
N          -2.90078182588634    9.80921111621377  -10.04737178443651
C           0.37250055716005    8.85732105401865  -10.84573101114956
N           0.77312466029492    9.83468721727113  -11.28768331828814
C           0.84808022987767    4.33206592673569   -9.62529343338928
C           0.28497750796824    3.18758600004610   -9.07939423357899
C          -1.09172093414636    3.14891637805897   -8.61936883904781
N          -1.39477694319559    1.94337446766082   -8.12039441914880
S          -0.09678797673063    0.99343533828324   -8.20379760015122
N           0.90279281438435    2.01234169942638   -8.89617815511295
H          -1.31054120717488   -9.32542434883820   -6.10167799486678
H           7.31697117631613   -1.79043923583935   -8.06358413805521
H           5.50049521209487    0.19824059988598   -7.86074983410795
H          -0.29887265566168   -1.78355683791958   -6.66173649067382
H          -1.43272788772458   -4.47908828172101   -7.57631969431805
H          -5.13979943573944   -4.90487023920926   -6.93755645926329
H          -5.61402974627684   -5.49076765193351   -9.36943873732814
H          -4.66051734666383   -4.07908309745266   -9.82960772821828
H          -7.39020350647626   -4.21961607226021   -8.57714528214570
H          -6.74026316351261   -3.04858198163017   -9.72877037707207
H          -7.01181538637429   -1.74451621450795   -7.82685998540677
H          -7.43887296688953   -3.06100959681983   -4.58144850495507
H          -7.82488102871850   -1.67615064780501   -5.63598779351833
H          -6.15779264549251   -1.91473623846015   -5.05517940855329
H          -4.15518454410504    1.08256976802603   -6.78289040608700
H          -6.94900389803741    0.24686065853495   -7.72862855385926
H         -10.69376500555044    7.24805605844693   -6.67679312124959
H          -8.30063955409108    8.42752618470019   -7.09791851995756
H          -3.69187770547140    2.30755056984981   -8.29441809426571
H          -3.66978055320329    5.36559475948507   -8.14691310986479
H           1.86537478261064    4.35088887341070   -9.97736678118201
