136
 SCF done       -248.739537946046          0.000809943011
C           3.20231220256184  -13.84779891056229    2.17886546995632
C           1.95234607465193  -13.24963321031223    2.02976452721259
C           1.81949642254172  -11.85337039256469    1.67280653843323
N           0.59686574949415  -11.33227483652372    1.47077132114375
C          -0.45638082577453  -12.08037996647991    1.67569359611568
C          -0.32426383086291  -13.45537229183228    2.07587168731922
N           0.85182984047994  -14.00529748318070    2.21802678962527
C          -1.49279468114122  -14.22321449818666    2.31078526632908
N          -2.46678273848050  -14.79654164322919    2.49767211624566
C          -1.74277761394694  -11.51026875012069    1.51894906291123
N          -2.79740674305609  -11.06982050297493    1.43478509429712
C           2.95370202401142  -11.03588473371810    1.49294905058271
C           4.18965248773700  -11.63857770732311    1.72196524798577
C           4.31852859995709  -13.04503851530892    2.03336233022908
N           5.61446121053761  -13.40074132504507    2.15181058836136
S           6.52829235674983  -12.12637767697724    1.89525498592650
N           5.39421427296901  -11.04006940499444    1.65498092657427
C           2.86679632605331   -9.63491977262255    1.07471992912697
C           3.79648506672833   -9.08363765156384    0.17304342202432
C           4.79526933479472   -9.88410757290289   -0.56803600708332
O           5.92361224571774   -9.49559237008723   -0.80560542690306
C           4.34374367942670  -11.18197558460197   -1.11101988897153
C           3.06912581724759  -11.62393209548306   -1.32562191952160
S           3.03192155400264  -13.22946131346399   -1.91721923873830
C           4.75528281533605  -13.31952709886831   -1.89565022107254
C           5.31997915294521  -12.16162059189764   -1.47279341259438
C           6.77797345536554  -11.87252600804891   -1.35408263598796
O           7.40295009493906  -12.16867188605716   -0.34706549064168
C           7.41927413835232  -11.26149455029555   -2.52665401899991
C           8.75295674832576  -10.86207938773994   -2.42091336538840
C           9.38836844296167  -10.27053842434097   -3.49363398228479
C           8.70206513365860  -10.07487277170969   -4.68239780596234
C           7.37784348513345  -10.47094952456026   -4.79552304641223
C           6.73394615870446  -11.06050272983264   -3.72536167981266
C           3.76042176491639   -7.71667142892560   -0.08664690678639
C           2.77341632571192   -6.91405084577326    0.44587800549781
C           1.79281261529946   -7.46064293877881    1.27537221664856
C           1.88313434083453   -8.81168972450855    1.60565022390103
C           0.66250569794084   -6.66711122284707    1.76709268319521
C           0.09736924443877   -6.92335274019028    2.98907082999684
C          -1.06191091047840   -6.22594010886975    3.39168458940320
C          -1.85915078013079   -6.36197887342128    4.52000466136118
C          -1.62797252262303   -7.33172727236241    5.63448598497658
C          -1.89435943809417   -6.73981784306138    7.03068797072814
N          -0.73801719061182   -6.96181455476168    7.89145320477910
C          -2.44877452530194   -8.61883121280779    5.40402659205182
N          -1.88454471635072   -9.36498063113004    4.29216172929514
C          -2.94593749926557   -5.43233086308824    4.37640587229677
C          -4.04370176889929   -5.18561090111249    5.12756563817223
C          -4.89259945049054   -3.99518842901983    4.84567824564144
C          -4.74908132265307   -3.41935068083184    3.48238876531931
C          -3.70894110559410   -3.74338226617507    2.68883067206545
C          -2.75639633119665   -4.70000228443290    3.11264520005730
C          -1.61793092642228   -5.20900322917797    2.51488665725222
C          -0.98757851411775   -4.93854371304210    1.28040020032336
C           0.11012312488744   -5.65342809612785    0.92109475729056
C          -4.19707574115247   -3.10070640257538    5.86033221679357
C          -4.63057174415942   -2.88456289071968    7.10038678871971
C          -3.83270922712547   -2.21765827468499    8.12373443295863
C          -4.40967376656673   -1.53633671646885    9.20957467603800
C          -5.87847652579916   -1.35348255113201    9.33442537171603
O          -6.68612409839631   -2.22437756167735    9.07691876581207
C          -6.30444525065530   -0.01232359612765    9.77846828855101
C          -5.61970192421623    1.13974566601487    9.50258477097016
S          -6.46311493539987    2.54372866645413    9.99813336562239
C          -7.76977124431665    1.59233746241555   10.58068819161329
C          -7.56136561056097    0.25855968993342   10.41183491061869
C          -8.52797339643379   -0.77409380765724   10.86782469889007
O          -9.71933507622158   -0.65586179172351   10.68549310001998
C          -7.93141730561719   -1.92953149797842   11.57850220938118
C          -8.59246733798831   -3.15426069204725   11.53581001109639
C          -8.05358211493489   -4.25701516810421   12.16966679007068
C          -6.86029421283588   -4.14246446239055   12.86456478098277
C          -6.21154066037002   -2.91970924520990   12.93441318685968
C          -6.74174527555158   -1.81581903419178   12.29433133577066
C          -3.57724747227398   -1.04271009897880   10.21280812261790
C          -2.20997843767670   -1.21740600431871   10.17081042722411
C          -1.61396493809489   -1.84785943502542    9.07375816078635
C          -2.44686017368274   -2.32193287150211    8.06428425485637
C          -0.17198183702183   -2.08054097351681    8.99240198818919
C           0.76692245869982   -1.23740081388586    9.62699672370543
C           2.18095217491308   -1.54222241217536    9.62897186148494
N           3.04926880168097   -0.74019590357018   10.27758937077474
C           2.59793367805272    0.33082732468416   10.87343094014090
C           1.20406308238835    0.67632028089782   10.81003165585722
N           0.34154378100562   -0.10058233089880   10.20675117056376
C           0.74254261790780    1.87669232811748   11.40513566661374
N           0.39324700391991    2.84503427201424   11.90822190310848
C           3.49402945169974    1.17270622881255   11.57976048837999
N           4.17962384625893    1.87891347771433   12.16568946898154
C           2.68231705333771   -2.66702424985928    8.97863788183605
C           1.78251124029597   -3.46534358766471    8.29771367706140
C           0.36296220447214   -3.17108119940071    8.29024993987664
N          -0.30838102717735   -4.08349415455823    7.56354359621917
S           0.71519050208149   -5.15731874254086    6.97396608531684
N           2.06420820433724   -4.56524276082071    7.57210598628587
H           3.27775298129215  -14.89655626135988    2.41039210077572
H           2.15223173965575  -11.08716617818123   -1.18088707550497
H           5.24467669142884  -14.21898599250312   -2.21149360868804
H           9.26539239181100  -11.01805167569821   -1.48395529341269
H          10.41809630768266   -9.95822619251084   -3.40619022104612
H           9.19779777649768   -9.61072918275616   -5.52206541147051
H           6.84612886407586  -10.31551829125038   -5.72250326701754
H           5.70209420852893  -11.36460757380915   -3.81895536820027
H           4.50990515984061   -7.30274555150738   -0.74512694460862
H           2.76929996495523   -5.85747830973176    0.22521908136033
H           1.15599151671036   -9.23983622953372    2.27631487004993
H           0.52355779768936   -7.66441792369344    3.64785510059749
H          -0.57447504141332   -7.62637515132963    5.59756024209030
H          -2.80884447179240   -7.17782345915561    7.45534528846670
H          -2.03093496349168   -5.65804435631310    6.97213167147772
H          -0.48415101308235   -7.94365284655885    7.92229901848008
H          -0.92131748847737   -6.63699608674612    8.83431161757825
H          -3.50793586144769   -8.34600867251385    5.26159567078371
H          -2.37905301712699   -9.25862482781977    6.29038386104882
H          -1.92753369802950   -8.80538847980223    3.44530904624286
H          -2.43089872653756  -10.20264903446438    4.12003946144388
H          -4.27607898919752   -5.74688566759148    6.02030132834781
H          -5.93620976321798   -4.14303021938301    5.12847622864333
H          -5.48121324688163   -2.68503117468796    3.18594237787944
H          -3.59672635999773   -3.29316849741033    1.71319312247458
H          -1.39545780979601   -4.18253901043886    0.62560227124340
H           0.56965620370899   -5.48461142200338   -0.04102364167426
H          -3.25191436778633   -2.70762247952490    5.51375068291597
H          -5.60158829691702   -3.23986702900620    7.41310626636362
H          -4.67478323808981    1.23599237137947    9.00446594358053
H          -8.61629535748726    2.06209724062723   11.04082668245328
H          -9.51797581354697   -3.22228018386133   10.98476873743487
H          -8.56255257213592   -5.20837295546838   12.12310768320634
H          -6.43669540387866   -5.00489839182207   13.35833628502551
H          -5.28885404094891   -2.82796467296952   13.48896895932646
H          -6.24425478053714   -0.85914324015952   12.37010748823414
H          -4.01694965893646   -0.54945588184978   11.06681762923993
H          -1.60616691098502   -0.87182518352521   10.99293878748343
H          -2.00000844185531   -2.83420993049459    7.23009756001964
H           3.73572639461477   -2.88756652152506    9.00666090404867
