84
 SCF done       -178.721279027914          0.000588821543
C           3.78170778398152   -3.47745750916383   -7.15121376570038
C           4.59080075819111   -2.96538158912856   -6.14169698332132
C           4.19728949691390   -3.03006936005901   -4.75464284973352
N           4.94379265951487   -2.41961378541598   -3.82022719369972
C           6.09005105567882   -1.90246463369998   -4.16091754157725
C           6.55401330581933   -1.96601921046554   -5.52834802026533
N           5.78791571572784   -2.43352439616052   -6.47181642265124
C           7.83696437805130   -1.45404033617516   -5.85520266067517
N           8.87987841512744   -1.03675082810299   -6.07513076147691
C           6.86304542621536   -1.21121271055602   -3.19274755698058
N           7.52065364387427   -0.64434196087113   -2.44653151777832
C           3.00343244281453   -3.66975899172349   -4.36098150745063
C           2.19614330268695   -4.18885522932361   -5.38403835245652
C           2.58558331047685   -4.07536164509407   -6.77773094285178
N           1.68278047964924   -4.65016579468771   -7.58561224577012
S           0.50959766713702   -5.26774163730778   -6.70127904443484
N           1.04429317370135   -4.85741738465895   -5.24926218769198
C           2.72882693657620   -3.84964384025997   -2.95765648458119
N           3.70717844368968   -4.20090564232458   -2.14988859680618
C           3.14691542261875   -4.37678655326219   -0.93068426386009
C           1.70259553960264   -4.11767000344599   -0.98237184390559
C           1.08469044780815   -4.30658475577299    0.34233685059492
O          -0.07571185644363   -4.17313065199953    0.65582534081902
C           2.24157163932853   -4.69728792451973    1.17341368110324
C           3.47850777364828   -4.72845838299139    0.35147405685549
N           4.54651749018122   -5.07212049878144    1.11291998844493
C           4.06920157428995   -5.24297054843702    2.31835195740637
C           2.63624890056947   -5.01745134813562    2.42926132848070
C           1.41903622001128   -3.74327586796361   -2.26968549700160
C           0.15491276377141   -3.30918712056728   -2.76089930332532
C          -0.04832778656547   -2.56558783578674   -3.86909589458032
C          -1.33497974316394   -2.16949593062925   -4.33619626817942
S          -1.51340358115715   -1.55252852071937   -5.95261595805992
C          -3.23132747455369   -1.36521789673363   -5.76979817543745
C          -3.62103429046261   -1.75737775852845   -4.48222571717326
C          -2.55355365498579   -2.21460544070350   -3.69254036259383
C          -4.92313486436695   -1.71641884729560   -3.95457163395652
N          -5.94932109557972   -1.70308768299828   -3.43978011323608
C          -3.99173598429708   -0.89278042553921   -6.86396790541119
C          -5.33330864785499   -0.67680319575091   -6.85045233717280
C          -6.04113540065018   -0.22690878362671   -7.99324247812070
N          -5.46434763631770   -0.04346456610111   -9.17431017325560
C          -6.44543060826319    0.36175154119257  -10.00343933873484
C          -7.73890653071249    0.45368766599927   -9.30599992191779
C          -8.79929427168763    0.88976926723337  -10.23138675290622
O          -9.97314997274882    1.07042776121165   -9.99933875766349
C          -8.06786784689525    1.04340583193245  -11.50411194758309
C          -6.63713483183543    0.71296786279504  -11.31846851000642
N          -5.96005004198068    0.84734039045530  -12.48473748082141
C          -6.85815310539740    1.22981060011645  -13.35941967714521
C          -8.19558363502050    1.37087486051887  -12.81443218610811
C          -7.49655598948955    0.07688009219535   -8.01001572129289
C          -8.33408157112723   -0.03167794138708   -6.87132875774073
C          -9.65495873098424    0.27045572694965   -6.83488763073905
C         -10.43984315527467    0.14037204994617   -5.64676040486264
C         -11.80586176665813    0.51742011980794   -5.65784737182757
C         -12.63724207488712    0.40554360599470   -4.48135329074525
N         -13.93387107493249    0.77905110799987   -4.53666019595574
C         -14.41391661220999    1.23844079411293   -5.65728546197597
C         -13.58309503776494    1.35239573409505   -6.83081117282765
N         -12.32822495746970    0.99509710393819   -6.79711792594582
C         -14.14038957500468    1.86093451303730   -8.03108851578453
N         -14.64063634351623    2.27861107003848   -8.97278087886441
C         -15.77565566889554    1.63315179680482   -5.72368028190721
N         -16.86895154185931    1.96154524466858   -5.81106352737911
C         -12.13472099217940   -0.08066416700060   -3.27875809565937
C         -10.79909317288872   -0.45771663974899   -3.24512642358568
C          -9.95060287499945   -0.34972897097130   -4.41621450312827
N          -8.70957879930999   -0.76997435395066   -4.14578832786578
S          -8.61721630874954   -1.24015671741255   -2.62253098724600
N         -10.12653429356974   -0.94893759284452   -2.19319917557261
H           4.10289298302836   -3.44564557150329   -8.17874337812691
H           4.72058725221099   -5.52925885153264    3.12580414975323
H           2.06133623232167   -5.10231619197890    3.33000986708722
H          -0.68468831510997   -3.59069948721206   -2.13956022305909
H           0.79026117628986   -2.24296170918803   -4.46984307493849
H          -2.67950555323355   -2.54440484399666   -2.67704144602233
H          -3.45776314023305   -0.69217775507361   -7.78340274964594
H          -5.89976003270939   -0.84940631076034   -5.94780699624579
H          -6.57698140594566    1.41051521650415  -14.38246768358728
H          -9.06503765810321    1.67104470796824  -13.36477447550900
H          -7.87158446547049   -0.38106108234982   -5.96038555546948
H         -10.17114668433788    0.63223728034227   -7.71453267355893
H         -12.76924315391336   -0.15654673348305   -2.41224317935153
