81
 SCF done       -177.952197010492          0.000461961053
C          -7.41107229271980   -1.82617603339755    1.21804636532403
C          -6.62346008478251   -2.40857118112290    2.21158720261236
C          -5.20736880066213   -2.61356169537681    2.02678481350169
N          -4.51089794534422   -3.30008459705451    2.94362784548794
C          -5.09301585891388   -3.64917296620899    4.05724048071132
C          -6.47189834500809   -3.30725959601642    4.30850876726628
N          -7.20105682790953   -2.75536638144421    3.37888980827594
C          -7.05787598855964   -3.62266908381353    5.56159663139484
N          -7.49604792220150   -3.88875499182817    6.58534758269679
C          -4.38112281856868   -4.42197246035040    5.00998088727238
N          -3.85065818206958   -5.04677674670747    5.80951272061605
C          -4.55242971878663   -2.16796201964668    0.85566688389382
C          -5.35002538332780   -1.56469769986470   -0.12314449504896
C          -6.78242847167063   -1.41773700057783    0.05504415287808
N          -7.34447026952714   -0.80832230557013   -1.00515657458035
S          -6.21829990797535   -0.47937968412648   -2.06997936959903
N          -4.94243459357782   -1.02130846943082   -1.27933412242850
C          -3.12382530433044   -2.29588743504003    0.74520836669357
N          -2.35685761212663   -2.08341833883730    1.79355330499581
C          -1.08687377886601   -2.25775767699378    1.36923564389362
C          -1.05163276568378   -2.61415774483757   -0.06091714564796
C           0.34061323975914   -2.81976252253278   -0.50475901490304
O           0.74282604792916   -3.11212447949209   -1.60832398663533
C           1.11016816936834   -2.57684380641018    0.72818066767212
C           0.19739236749434   -2.22787349913259    1.84441190255704
N           0.90041350618846   -2.01692007145221    2.98471439284862
C           2.15147783199150   -2.21699458309270    2.65919852182899
C           2.35426159169817   -2.57780863992977    1.26572233888564
C          -2.35793399236744   -2.66446557245859   -0.47393885729273
C          -2.91667128797609   -3.06981224322994   -1.72387261548677
C          -2.15792596695221   -3.34469305597590   -2.80563861979547
C          -2.65448806552435   -3.80339314149608   -4.07192639778752
C          -1.79402928048412   -4.34820550519829   -5.02519476260671
C          -0.41329655609253   -4.54346683498420   -4.91004029026220
N           0.71219824875234   -4.75235545496442   -4.84463525545800
S          -2.59706007743573   -4.86967304693039   -6.45836882360378
C          -4.12838743019540   -4.37573172842382   -5.82303187915576
C          -3.99596422229856   -3.81855133178733   -4.54911915528562
C          -5.09826704020101   -3.22760562634408   -3.91280825629149
N          -5.97303889417170   -2.67222221080830   -3.41668179166977
C          -5.37172302983538   -4.59610950165197   -6.47908611628797
N          -6.48453643602268   -4.58006960163658   -5.76467144073457
C          -7.48164179475144   -4.87625709751507   -6.62324878720303
C          -6.96533977840377   -5.10169583687137   -7.98047079562613
C          -8.06896849008446   -5.41830697250857   -8.90623589413313
O          -8.01470437497068   -5.66815389833404  -10.08906306148765
C          -9.25200429116618   -5.35682364690906   -8.02650873187362
C          -8.84564506029722   -5.02591589005961   -6.64024899725955
N          -9.92867760816201   -4.95269502867411   -5.82974154187204
C         -10.95404545805887   -5.20553943160317   -6.60326394283396
C         -10.60318535240447   -5.46055378636320   -7.99077783857713
C          -5.60722948822639   -4.90227947078791   -7.91267757404227
C          -4.61049032365813   -4.87774237471162   -8.92337931425345
C          -4.82251666998198   -5.24386480988952  -10.21124916174450
C          -3.85692770069933   -5.17614478859846  -11.26460725575078
C          -2.55915731892749   -4.60841023482297  -11.17998137484398
C          -1.67775556426934   -4.56282960042015  -12.32735915983220
N          -0.45564777534794   -3.99690179837060  -12.22204113373569
C          -0.07993481868635   -3.49559806518482  -11.07840083797498
C          -0.94877480777064   -3.54489597303579   -9.93530607902254
N          -2.13815086416023   -4.08642539428781  -10.01750877339649
C          -0.57026896192487   -3.00733530719495   -8.67989013068955
N          -0.30422230211900   -2.58021520036472   -7.65057095164690
C           1.19570731763219   -2.88325396047236  -10.96238885788545
N           2.21096621656113   -2.37313223257319  -10.82366514169709
C          -2.05029082510324   -5.08137452216160  -13.56440258231495
C          -3.31296786129149   -5.64682287061749  -13.66767720812406
C          -4.20848666719960   -5.69219820288523  -12.52941362595963
N          -5.36797158987243   -6.27619069529514  -12.84380521988606
S          -5.33746484433990   -6.70842676596221  -14.38001995166056
N          -3.87107824131103   -6.19906121395385  -14.75521639838434
H          -8.46511853345089   -1.67347100031090    1.37913958935674
H           2.92842512591689   -2.10934550613448    3.39615686048900
H           3.30009854067439   -2.78724935759353    0.80693153053743
H          -3.98936793625424   -3.17964239639589   -1.76532636758331
H          -1.07950709288353   -3.26337647570313   -2.73826298889855
H         -11.95117305316778   -5.21391179913942   -6.19864925558835
H         -11.29646242850067   -5.68109841488388   -8.77796269837492
H          -3.63501941240070   -4.51400421274445   -8.64081110894876
H          -5.78974420433542   -5.62776031524604  -10.51259255829606
H          -1.37412155749660   -5.03391888528431  -14.40086298964042
