86
 SCF done       -186.953384036029          0.000800391588
C           1.47436604712990   -4.72067398234108   -0.71399577345581
C           1.69281571641165   -3.56549447946299    0.03062062141964
C           0.60469156159852   -2.83921528329603    0.64005880046653
N           0.83635553824506   -1.65681718443222    1.23889083958005
C           2.06297034730407   -1.23026413490646    1.33417130197940
C           3.16641966336823   -2.01198870539514    0.82284693359165
N           2.95952985421718   -3.12196541535720    0.17508457652732
C           4.49560203382756   -1.54813935411485    1.00755013053419
N           5.55346277137830   -1.14553490034109    1.17793470422410
C           2.32119927074532    0.03318397809187    1.92707188012652
N           2.57941897195846    1.04426160185911    2.39742973453717
C          -0.71972448803661   -3.30343472278201    0.54991584974775
C          -0.92679199193900   -4.48171300016489   -0.18244852331830
C           0.16716366486810   -5.16749620472887   -0.83793330473487
N          -0.26951508940414   -6.23512616192889   -1.52621788906734
S          -1.84405126688722   -6.37643311821202   -1.34054757563263
N          -2.09348885395076   -5.10925360398784   -0.39253770622474
C          -1.82809293306784   -2.58483242678066    1.14147793152748
N          -1.85780541295416   -2.20205655633964    2.39186040351811
C          -3.09844990203497   -1.69224081129539    2.59797039390013
C          -3.91770025039235   -1.79295791071913    1.37547394513928
C          -5.27638967227233   -1.26434953572733    1.60945108127272
O          -6.21138065709562   -1.23819338048871    0.84541687016218
C          -5.19659805605786   -0.80989409649766    3.01210338812784
C          -3.85277042043960   -1.10573295162464    3.57610734998581
N          -3.77361722178422   -0.67716819594727    4.86118300788314
C          -4.93508699638796   -0.13732693405826    5.11712787228389
C          -5.87006393694013   -0.17617109752019    4.00097404694817
C          -3.09967728506273   -2.30794979882418    0.41433598595979
C          -3.29152972121716   -2.60771110824456   -0.96828884431311
C          -2.27153757300248   -2.53503738048366   -1.84992193051196
C          -2.22052024114220   -3.20681238431634   -3.09849554190469
C          -1.05799423778732   -3.53275500352828   -3.76026753587370
C           0.37527444673396   -3.29139917571109   -3.54935786717100
O           0.92589892084119   -2.60714748979402   -2.71656788610498
N           1.00681075373954   -4.08185215744050   -4.49109566551778
C           2.44113993373723   -4.16872827516020   -4.61673277860116
C           0.13719570508834   -4.85445018049592   -5.27094317500237
O           0.49073040686679   -5.65849243549365   -6.08563559050142
C          -1.21439021402076   -4.47566880074354   -4.79833573571283
C          -2.50851950103906   -4.90704330593556   -4.95434542515666
S          -3.55465429907189   -4.07102282301858   -3.82068523327855
C          -3.01383577075762   -5.93796581648092   -5.81124749993385
N          -2.64736834792854   -6.05021980870575   -7.06476855334202
C          -3.29460586258532   -7.14430352853122   -7.54127933953932
C          -4.11878902511066   -7.76918876108994   -6.49650972716865
C          -4.80841910739639   -8.96191302566470   -7.02249924545458
O          -5.55790061262058   -9.71427403998964   -6.44497521455997
C          -4.35359070201220   -8.99763938672547   -8.42718474341302
C          -3.43347081237355   -7.86328843487321   -8.69824600199719
N          -3.01147183159489   -7.89235577411632   -9.98763431477350
C          -3.58625804265757   -8.94059936701490  -10.51439586501366
C          -4.43775156039485   -9.68107671174277   -9.59236656679187
C          -3.95284706310884   -7.00559179132802   -5.36821598553208
C          -4.44897659316576   -7.14383645562965   -4.04561211747077
C          -5.30144386741908   -8.11585468051563   -3.64047511943265
C          -5.82307853985969   -8.20619631682370   -2.31252767644552
C          -6.72746265528299   -9.25434549466023   -2.00226691014103
C          -7.34771914735682   -9.37263747351388   -0.70663642590025
N          -8.20499569090286  -10.38676420312398   -0.45455724357089
C          -8.45553133199407  -11.24694931451051   -1.40087166697368
C          -7.83448958419120  -11.12981448089063   -2.69769317576088
N          -7.00506765039238  -10.15659155290016   -2.95846722232853
C          -8.12619379235763  -12.09153474652570   -3.69878635284384
N          -8.39437221810104  -12.89616325069934   -4.46797223155479
C          -9.35167774280346  -12.31913594757559   -1.14926602961082
N         -10.06730212685305  -13.19706512626590   -0.98294807376775
C          -7.09092613557788   -8.45248201066548    0.30506183548113
C          -6.20095482348942   -7.42537080204565    0.02633342158640
C          -5.54915362212442   -7.30118504130155   -1.26338095762279
N          -4.72254823824395   -6.24478273811518   -1.28128474992001
S          -4.78751224699297   -5.49164218157381    0.13607394372858
N          -5.83067112116413   -6.44388682432779    0.86396388046544
H           2.29998224338153   -5.23669800405282   -1.17456635912357
H          -5.13861871665522    0.28225893740726    6.08700573617311
H          -6.86619759588616    0.21954584238294    4.01042384948958
H          -4.26563223284887   -2.96300681816623   -1.27893760344832
H          -1.33424436449847   -2.07344854805095   -1.56447065879844
H           2.75435934292177   -5.21038107161330   -4.53791336253595
H           2.88417248139643   -3.57768600345640   -3.81651358956382
H           2.75790418924217   -3.77862106994033   -5.58529665224377
H          -3.41556471842005   -9.19441208863461  -11.54626628016438
H          -4.99170333542782  -10.56703770572229   -9.83136050023158
H          -4.12462464068723   -6.41675688153587   -3.31633849643814
H          -5.64817211503900   -8.87204987042925   -4.33312651947084
H          -7.57530005727617   -8.54053274486921    1.26249269848295
