88
 SCF done       -182.146070921934          0.000736601467
C          -1.86082886303408   -0.93599989711905    1.16751368784957
C          -1.72194492706214   -1.01704529751401   -0.21242325433498
C          -0.57832564343580   -1.65640252002012   -0.82130245221323
N          -0.36755911893534   -1.48065166346537   -2.13773177794140
C          -1.29057704482831   -0.91794471804584   -2.88176679407643
C          -2.57415917144563   -0.60094123902686   -2.30276556141935
N          -2.72481187686034   -0.58579025176988   -1.00831683927895
C          -3.71240873411914   -0.40288643880512   -3.12251197221611
N          -4.64837893855225   -0.36587248135000   -3.78217276493965
C          -0.97670994491096   -0.59770319661255   -4.22320399269145
N          -0.71880419248255   -0.32068979537621   -5.30589017484621
C           0.34365401742978   -2.39485495382328   -0.04623142692410
C           0.19789749730025   -2.30411986381037    1.35017549693243
C          -0.88711342489052   -1.54748294064182    1.94900702558354
N          -0.84008792105926   -1.59798705780726    3.28676313676381
S           0.40963973296083   -2.49565904019175    3.72399505816532
N           0.95984106703534   -2.88562486230101    2.27584646244170
C           1.37359997409442   -3.18197438345626   -0.65787263399857
N           2.56427517539111   -3.36639988299199   -0.12800536068005
C           3.27835422333466   -4.05104714772170   -1.04880866716869
C           2.48456817713154   -4.29007570020828   -2.26459819869711
C           3.27787055054946   -5.01288454044504   -3.27265443341700
O           2.95688010630833   -5.32695476961417   -4.39843604574195
C           4.55807655932256   -5.22600679281159   -2.57252006203465
C           4.51754538530956   -4.61752017504647   -1.22521135859750
N           5.68551316474025   -4.83049768932644   -0.57085352234807
C           6.42418871591062   -5.52298463251492   -1.40246326288940
C           5.77904808862306   -5.81304239949992   -2.66723903646764
C           1.24065458502829   -3.79010133486409   -2.00652972367277
C           0.03690372998451   -3.76656266159678   -2.76872267791465
C           0.01445990783025   -3.70060532400844   -4.12740962038047
C          -1.15419514933327   -3.42388709640438   -4.86747574530801
N          -1.09859139220618   -3.15931051417357   -6.21400004531389
C          -2.31843090875839   -2.72542015004069   -6.62450627030034
C          -3.03600645608681   -2.25601823969896   -7.70865282048478
C          -4.34720385129809   -2.02979360423797   -7.23944298055193
N          -4.43017536373517   -2.38099965617942   -5.91108120416595
C          -3.19966817635637   -2.77552301653761   -5.50147200520260
C          -2.47544267575729   -3.21303136514894   -4.40551374830916
C          -5.43541830435764   -1.56000228468675   -8.00354348334835
C          -6.74562381705735   -1.60281234080294   -7.62556866839460
C          -7.82539826272647   -1.15803786178525   -8.42267372108999
N          -9.03627805708874   -1.69533800978373   -8.28937442127275
C          -9.79205260033297   -1.15288358101606   -9.25408800452909
C          -9.02962416742379   -0.18050373836754  -10.05714281747395
C          -9.88612565540602    0.42169297309295  -11.09597703208252
O          -9.58628398567558    1.24597759259764  -11.93291499127858
C         -11.17990236491747   -0.23816144577912  -10.86334389623616
C         -11.08182777348415   -1.19192075201037   -9.74013770638820
N         -12.27296896761689   -1.78800950798188   -9.51286829429896
C         -13.09163087050756   -1.26906385812085  -10.40164249754508
C         -12.47779209497348   -0.29186369291185  -11.26907805615223
C          -7.77488182362973   -0.13936613498562   -9.50479088725849
C          -6.68194766259543    0.74424079230747   -9.71661221855142
C          -6.51921225093418    1.52855281991478  -10.81063896664761
C          -5.43950749128420    2.44313120237814  -11.01399873390952
C          -4.34236961410663    2.65523699955973  -10.13725799575639
C          -3.34962858773345    3.67781988573889  -10.40010605928614
N          -2.35485795554359    3.89865538104522   -9.51135552716437
C          -2.29409201494118    3.17658762394843   -8.42715047132239
C          -3.23826987719097    2.11890330424920   -8.19542624539923
N          -4.21027340461905    1.89166538612025   -9.04390151205160
C          -3.16672062773227    1.28940201111570   -7.05125740546637
N          -3.14553972980102    0.61475848135180   -6.12512492666907
C          -1.28041513919222    3.42689720887595   -7.46608740540964
N          -0.49004220583751    3.60180623183253   -6.65620760765978
C          -3.38960682929936    4.46598535318788  -11.54447523306378
C          -4.42756839499599    4.24336357873533  -12.43964316106420
C          -5.44209993736087    3.24329255020831  -12.17668359530497
N          -6.34857092056670    3.19777738907760  -13.15607765202171
S          -5.97471594093996    4.28058181622766  -14.26756404178400
N          -4.65043375120066    4.87936677871286  -13.59851914744942
H          -2.71819987363395   -0.45291106272757    1.60515423403493
H           7.42067930377887   -5.82044774226342   -1.12574468970961
H           6.21082500979999   -6.37039275880375   -3.47495467517103
H          -0.89102044685981   -3.83099198757267   -2.21662449091856
H           0.95156326493910   -3.72896169522437   -4.66582595415241
H          -0.24720212024791   -3.15534104534849   -6.75040419303882
H          -2.70021685518972   -2.08898348324791   -8.71216536702948
H          -5.19328663814477   -2.12139538195730   -5.30667036160985
H          -2.83383367083264   -3.39670777427132   -3.41213916325880
H          -5.17922705299417   -1.21118656431417   -8.99395016636427
H          -7.03304417374064   -2.10195710418031   -6.71047772093178
H         -14.12067671855776   -1.58228179717033  -10.43687259300739
H         -12.97284168843715    0.24847362489193  -12.05150466492100
H          -5.96130360461470    0.80246972471157   -8.91505623804926
H          -7.24984637837675    1.50311846932285  -11.60962311349011
H          -2.64541415851212    5.22569171962092  -11.71082289310269
