118
 SCF done       -200.504860500739          0.000874102516
C           4.59223380352830   -0.25785677460739   -1.49594798445946
C           3.20938751913579   -0.33247796529145   -1.58542854859943
C           2.49427182328738   -1.55974175047146   -1.30517491060529
N           1.15021508579209   -1.56024545168094   -1.32607886403076
C           0.51273167449175   -0.46851613629754   -1.66210654228237
C           1.22900972172462    0.72869971473918   -2.01823869212816
N           2.53048116679392    0.77739634963467   -1.95566058871889
C           0.50398252593196    1.87739001188335   -2.42738247719397
N          -0.12076499811292    2.77898482431781   -2.75684076189518
C          -0.90347281565631   -0.47265311025332   -1.67008476324439
N          -2.04877901628149   -0.44604224177428   -1.69967122127111
C           3.17081114764757   -2.74933166511041   -0.95837672773119
C           4.56985750448886   -2.64873290842910   -0.85008005511168
C           5.27253812720804   -1.40946357539445   -1.12371897841257
N           6.59797731913799   -1.54882484489760   -0.98862248269649
S           6.91892700359811   -3.06089074627298   -0.57752603644023
N           5.42366923628422   -3.63231995959281   -0.53909710600372
C           2.47604462423375   -4.00540653880974   -0.73439792745391
C           2.95304832245355   -4.90348087603936    0.23316228282811
C           2.29954715991031   -6.09282365316014    0.42818686491274
C           1.16498353298935   -6.42476513176417   -0.33440982844627
C           0.69008435609007   -5.54543627123300   -1.29765178288831
C           1.34579536178865   -4.34708044438645   -1.48910361599209
C           0.70265226415232   -7.73075402551525    0.07389646488107
C           1.54775742130053   -8.20860278306962    1.09109859636375
C           2.62952100128860   -7.20006664739567    1.40176226215086
C           4.03360760790890   -7.77400304027209    1.13570054264334
C           4.21128195458201   -8.25996815286156   -0.29747283428813
C           2.53947023309883   -6.71023097164621    2.85906406301093
C           1.17397705712120   -6.12858770192425    3.20488174487136
C           1.33508024361265   -9.44022332562729    1.65876463103587
C           0.26338512206683  -10.23352509276076    1.21707650809427
C          -0.56845092941004   -9.74262653583714    0.19962176896148
C          -0.35999025160151   -8.50554101030757   -0.37134908323620
C           0.01000826321835  -11.53280051492959    1.78954046074547
N           0.54016414576278  -11.91929483438933    3.00235495931032
C           0.12025315140584  -13.18334062029673    3.27796997967406
C           0.17824489320212  -14.21384332698745    4.21252938391347
C          -0.58275191172232  -15.26179011908265    3.68350504664066
N          -1.08985419007777  -14.88241628649764    2.45769376429047
C          -0.67756459142637  -13.61528957274759    2.19311323472793
C          -0.74986569868266  -12.57771672120698    1.26414810352417
C          -0.82405846424692  -16.52464068247661    4.28973553419392
C          -1.54853865089079  -17.53374338208679    3.75717424605452
C          -1.82101984364798  -18.81173168875507    4.36325226289336
C          -2.54716622530328  -19.76066806207087    3.62186134242020
C          -2.83636295454790  -20.98473879669798    4.16838447226964
C          -2.41632829596177  -21.30150732018753    5.47313133173116
C          -1.69502921488489  -20.37640360567670    6.21699345625841
C          -1.40478787748739  -19.14928022567775    5.66051914759926
C          -2.87075557595198  -22.63438757119685    5.79271233376451
C          -3.57004361928951  -23.14639381793863    4.68411668501151
C          -3.59160528756357  -22.14146446044774    3.55666019244646
C          -5.03354191061305  -21.74769184753063    3.18748355039788
C          -5.82231335633122  -21.21399543860944    4.37697692511643
C          -2.86905090436742  -22.68506672931557    2.30972217002145
C          -1.42855996364511  -23.09493957751112    2.59165953032222
C          -4.12613117569112  -24.39870061313785    4.72181088381710
C          -3.98823870593547  -25.18017608368725    5.87971349712928
C          -3.29157695158468  -24.65979004127231    6.97885656921506
C          -2.73514206697753  -23.39809014626915    6.94425026282291
C          -4.58637540431325  -26.50275585952594    5.93104407587403
C          -3.98952612300540  -27.57975790635987    6.62189190424360
C          -4.62961419562290  -28.87555648710874    6.70827158363334
N          -4.04772804220554  -29.87246115679453    7.41362841437966
C          -2.89158664145159  -29.65513368090739    7.97571477567832
C          -2.21649208972446  -28.39257027245748    7.82177702579936
N          -2.77332604972779  -27.40635377695546    7.16724639851419
C          -0.92831150623809  -28.20918644948662    8.38082436734260
N           0.10718128010178  -28.09031047793846    8.85752236811238
C          -2.27960904134594  -30.68297011410419    8.73837792965394
N          -1.75103463324661  -31.48334767033351    9.36454524768041
C          -5.84520264306222  -29.13116513663315    6.08965979441383
C          -6.43204281683368  -28.09322569734023    5.37840568132534
C          -5.80761131306237  -26.78671546901619    5.29262573700284
N          -6.56006091788880  -25.93497563925770    4.58447084407866
S          -7.87902860825523  -26.69129073015557    4.08351653070547
N          -7.59885414701805  -28.13120604600365    4.72140851171647
H           5.10741288728066    0.66054806921319   -1.71878054073171
H           3.81749886738058   -4.64119626486582    0.82162584629167
H          -0.17238487203561   -5.79554760772553   -1.89660507004605
H           0.99913375646050   -3.67053312770958   -2.25340071741382
H           4.21075556254573   -8.60252753678053    1.82521685060180
H           4.77222230709305   -6.99829246651953    1.34670603884247
H           3.48195521403815   -9.03109795356107   -0.53638161251687
H           5.20766448387342   -8.67493012544142   -0.43038597986283
H           4.08499782515640   -7.43755357735940   -0.99755890031816
H           3.30756196034479   -5.95078713776537    3.01863804552509
H           2.75718684625233   -7.54842704269277    3.52507393307343
H           0.94747380144147   -5.27681483546088    2.56777812174280
H           1.15947732992556   -5.79693462085283    4.24059488633311
H           0.39200828525494   -6.87284278072173    3.07025792821197
H           2.00648798606082   -9.80514146377702    2.42283008389501
H          -1.40033352160304  -10.34516686005124   -0.12886405982488
H          -1.01585341665791   -8.14484368086007   -1.14922314312489
H           1.07381342408874  -11.32403214612065    3.61053677039046
H           0.69154081680718  -14.23265851548457    5.15277097310159
H          -1.67545726362251  -15.45491365809931    1.87635053905211
H          -1.25650774779984  -12.57928133923007    0.32006688057106
H          -0.36824645627717  -16.64105756252467    5.26204812676496
H          -1.98358316951565  -17.40419556621471    2.77345352825824
H          -2.87138276848489  -19.51436219762468    2.62009900806565
H          -1.36765666719857  -20.61293020100377    7.21839827094728
H          -0.84951807904829  -18.43065864249030    6.24268722676678
H          -5.54190712648975  -22.62508723373663    2.78296679914553
H          -4.99905500415753  -20.98816782013092    2.40327911702513
H          -5.90476505635794  -21.97276081418600    5.15160016238298
H          -6.82483078910103  -20.93110669135834    4.06447352053408
H          -5.33394060034656  -20.33957172686811    4.80188840263690
H          -2.88190187451125  -21.91559318297729    1.53463632210987
H          -3.42448262856796  -23.54691245090378    1.93404455687876
H          -0.84781057964762  -22.24441339521054    2.94187015756207
H          -0.96464062723360  -23.47890516440075    1.68598668764473
H          -1.39162186982728  -23.87103607985449    3.35280051539839
H          -4.65332526044348  -24.79806487830576    3.87039410117350
H          -3.21384514428237  -25.24810157207888    7.87888413865009
H          -2.21230726870441  -23.01045139110935    7.80546079724002
H          -6.31024559649464  -30.09828566798966    6.17292725394564
