110
 SCF done       -209.593024831138          0.000419166164
C          -1.75411124458698   -0.16620035334784   -7.69441931072373
C          -1.26282764905130   -1.46535985511304   -7.64756858270904
C           0.15145270624090   -1.74730395819041   -7.75570031498996
N           0.57049304309512   -3.02217159428458   -7.83948720372621
C          -0.29991016906875   -3.98833694914693   -7.66675452086952
C          -1.68331083729570   -3.70263500219670   -7.41006175567581
N          -2.14008642343647   -2.47878324141843   -7.45645095737395
C          -2.57709318313494   -4.76473515032726   -7.12600191076014
N          -3.28424692786487   -5.62965880788096   -6.87020972844866
C           0.12722836846322   -5.33554735034434   -7.72138987411338
N           0.42928090963456   -6.44111506549675   -7.71803450282235
C           1.10118875823497   -0.70293629149357   -7.79888725974671
C           0.59140298701940    0.60807873400662   -7.86653822795081
C          -0.83561402289637    0.86825639791078   -7.82853570732477
N          -1.09879588725894    2.17944622770877   -7.88829678449975
S           0.28796330918530    2.97830553322570   -7.97154539472866
N           1.29503617153329    1.73802429199228   -7.92374279926410
C           2.51878729302676   -0.92926920179616   -7.75836172754617
N           3.36016107727747   -0.16576550887991   -8.42682056622880
C           4.58838548256831   -0.68131132570093   -8.21407458697754
C           4.51456961647055   -1.87674657326842   -7.35841911128481
C           5.85923749271563   -2.43447836393181   -7.12032694031704
O           6.16877748496572   -3.40003882469025   -6.46047658825265
C           6.72029680280713   -1.50947321512570   -7.88226363953865
C           5.90609246703789   -0.45780084458145   -8.52989715171878
N           6.69855158684224    0.41062983992807   -9.20500095369454
C           7.92100219895231   -0.02312164724040   -9.01686716195655
C           8.00822600138416   -1.21200369495736   -8.19356558124002
C           3.20159204245474   -2.02885636603069   -7.02560983455445
C           2.56740369819406   -3.01475258067152   -6.20266323572958
C           1.55980150736412   -2.74184055068157   -5.34726705108561
C           0.70533230134471   -3.73595909568304   -4.75282435807377
C          -0.60016601817922   -3.36480007773120   -4.46923677354250
C          -1.55612795379605   -4.34009415945772   -4.16147329058322
C          -2.94058000731346   -4.23897794283492   -3.98467679966369
C          -3.74153632092095   -2.99448263156752   -4.07274571371187
C          -4.95101871631845   -3.11233838611789   -5.03259938664207
N          -4.94436687422934   -1.96228543540288   -5.91970327266367
C          -4.20267336621751   -2.49099173092525   -2.68231997499347
N          -5.07078635443820   -3.44995543120236   -2.02843422075380
C          -3.42868583622790   -5.57945682676519   -3.79947385963885
C          -4.68172964160000   -6.05116121559724   -3.62404437835580
C          -4.94486839747382   -7.50611162770693   -3.52314466424859
C          -3.72871104319217   -8.37486277328708   -3.54566015400806
C          -2.48278315009216   -7.88529055935658   -3.72192985749183
C          -2.28484270511160   -6.49677334783410   -3.86024943319910
C          -1.14851045146844   -5.72939691990369   -4.08271819625072
C           0.20609495521510   -6.06928089123657   -4.27065128350827
C           1.10091019401341   -5.09858865147699   -4.60561583268132
C          -5.76237108809189   -7.95033669842037   -4.71032792837579
C          -6.81271823651629   -8.77500433714105   -4.58755645190584
C          -7.59660591543230   -9.24781676062711   -5.68325548677094
N          -7.42085769002047   -8.85204071984650   -6.93280773902234
C          -8.37952875604319   -9.46479984582585   -7.65520303004554
C          -9.23906617488575  -10.30601891727784   -6.80710163466960
C         -10.28501519972043  -10.96175198962523   -7.61111057854441
O         -11.16352479993255  -11.70829581297609   -7.23786279818217
C          -9.99560172181592  -10.47070592673058   -8.96961359892779
C          -8.83058436559697   -9.55999544809468   -8.95180451905352
N          -8.56336822910680   -9.10251607145237  -10.19716392680499
C          -9.46621102052747   -9.66086254244071  -10.96918409385739
C         -10.39031049890423  -10.52640419133742  -10.26862772721596
C          -8.73830454524692  -10.18993389194562   -5.53480148883158
C          -9.11826883981083  -10.76260885650606   -4.29591062821027
C         -10.24218726403912  -11.48391418118297   -4.05575682742401
C         -10.62578760664698  -11.95577601920553   -2.76267270300298
C         -10.02114417575341  -11.57740475046686   -1.53268279567450
C         -10.44978564153782  -12.13977821745484   -0.26681241686168
N          -9.81809148855793  -11.78892417696677    0.87619181345165
C          -8.83416570768873  -10.93301348200271    0.82962451021643
C          -8.44924795415061  -10.32710257767044   -0.41246300414439
N          -9.04921122028194  -10.65862989013131   -1.53162206313203
C          -7.42086418056037   -9.36246379892306   -0.52239630104599
N          -6.57959431985768   -8.59986814460265   -0.68779457985847
C          -8.14509080876698  -10.57303988004411    2.01619807409861
N          -7.54742116156199  -10.24062998225010    2.93491840303215
C         -11.49965291535919  -13.04634811998400   -0.18707789631042
C         -12.13518952738950  -13.39748466250276   -1.37195185728981
C         -11.70469265472957  -12.85756875026174   -2.64607415850153
N         -12.44048825857375  -13.33303075299236   -3.65299389779265
S         -13.54189653226015  -14.33288779995674   -3.07096726669144
N         -13.16592191349866  -14.24098678133557   -1.51767295646904
H          -2.81025523905706    0.02366440857475   -7.59906509750256
H           8.75458561946049    0.49358826353771   -9.46012567892479
H           8.91369676515182   -1.71607288428606   -7.91890219497950
H           2.93476493985912   -4.02552408819498   -6.31858059732195
H           1.24504690578316   -1.71147400340536   -5.22238329608518
H          -0.89251907025445   -2.32572924129003   -4.55084081611922
H          -3.10112837632238   -2.20355620682402   -4.47592974392249
H          -5.87395621456417   -3.09346447617840   -4.44981056065413
H          -4.90300484156787   -4.06979746782377   -5.57166375057208
H          -5.80903590585054   -1.91405353623326   -6.44636912049789
H          -4.17819212322121   -2.04422052075144   -6.58397464981405
H          -4.76648575052409   -1.57063681741712   -2.84731610041036
H          -3.30484435522974   -2.24605219465206   -2.09255145905318
H          -4.53026434511918   -4.20253446120137   -1.61681248715132
H          -5.60686220875901   -3.00793632381317   -1.29198663499266
H          -5.53225897299018   -5.38938619447825   -3.56710445620042
H          -5.52047071515325   -7.70770252383336   -2.60742779872771
H          -3.90420952682957   -9.43436777763358   -3.44359829726385
H          -1.62819576204643   -8.54498695942628   -3.74921343988954
H           0.52004292489682   -7.09681521411283   -4.17291043919063
H           2.13671198544914   -5.35199316578157   -4.76550673972052
H          -5.42991024212444   -7.62130661447516   -5.68380581437925
H          -7.11326877173097   -9.09856476963736   -3.59996879569022
H          -9.47573712080524   -9.45836624920352  -12.02617160807785
H         -11.19623887974419  -11.07285045980768  -10.71709830804209
H          -8.44968446817445  -10.57910357814149   -3.47015845975653
H         -10.91002872491038  -11.74679445058329   -4.86673650434607
H         -11.79412239359491  -13.46054952015943    0.76184082190314
