108
 SCF done       -197.990391864027          0.000404377513
C         -11.18962441641391   -0.49364563829161   -3.24321075777260
C          -9.86952138813094   -0.09179017798798   -3.27185882507084
C          -8.91346470165642   -0.44873558464427   -2.22917504712599
N          -7.66225689564100    0.01507987414603   -2.33065543555634
C          -7.31030611403151    0.77063028362645   -3.36596094194202
C          -8.25296048855509    1.08443529836684   -4.39329345442664
N          -9.48443217178907    0.66082914861487   -4.32970709385619
C          -7.82659323514882    1.86575286153838   -5.49792345205816
N          -7.42636279759459    2.49777516686174   -6.36565413245073
C          -6.00815063777380    1.28652899669803   -3.48642652870872
N          -4.96835360712121    1.74763912868059   -3.65972231096072
C          -9.30925215574368   -1.26353234193308   -1.12608841101528
C         -10.68197176327455   -1.65445717259732   -1.12103922390454
C         -11.60506545866662   -1.27116224682915   -2.16730745932773
N         -12.83255237822828   -1.74860735388582   -1.96197459183278
S         -12.83040851079827   -2.59491531072521   -0.59217699110712
N         -11.28539973140602   -2.39880305744704   -0.19755359357562
C          -8.49455748168024   -1.72589339284676   -0.04890280541110
O          -9.11921865095061   -2.46734807086768    0.90314289469192
C          -8.21663114090236   -2.84890021100749    1.82218415454588
C          -6.97758726286211   -2.37919818898107    1.51151058102603
O          -5.79813135514302   -2.53383970877445    2.17007638008088
C          -5.86572828159316   -3.26844568031500    3.37090461351469
C          -7.12739670124761   -1.63564323727275    0.29458118400864
N          -6.17198588402117   -0.97117658053504   -0.38486855884811
C          -4.84885557072844   -0.91083175026262   -0.10871447613307
C          -4.04105582559125   -0.14880878424062   -0.88502600524459
C          -2.63161470444200    0.05098659542561   -0.79490415408454
C          -2.06412294519908    0.93829787295997   -1.69437848700100
C          -0.68663307115845    1.18478589939861   -1.67936045803322
C           0.10982699022628    2.01797914214905   -2.46067957065631
C          -0.28925698711509    3.01748414285338   -3.48331856010428
C          -1.38138399316761    2.54810552017819   -4.46067418064761
N          -1.19560518757364    3.22977949366347   -5.73624361175169
C          -0.74718897045167    4.32858369912829   -2.76350503489053
N           0.31183736206373    5.12398825177976   -2.20287149254881
C           1.45355190297640    1.89145191901667   -1.96017229216651
C           2.60081662406489    2.47984777964448   -2.35459781858536
C           3.84887981418072    2.33103857885709   -1.55404523417388
C           3.80132732573645    1.25240008321998   -0.52363395336899
C           2.66219638972176    0.61800358718269   -0.18991475396691
C           1.44671286234524    0.93122195002687   -0.84960705297079
C           0.14487048883677    0.49885353824083   -0.69665741366413
C          -0.45915080198109   -0.40824015531430    0.20780635415746
C          -1.79815447618451   -0.62105805781295    0.15939579433013
C           3.89649030917847    3.70151756649214   -0.90686305359899
C           4.43466075154879    4.76871301974693   -1.50353066382128
C           4.42388740269915    6.09017581484768   -0.94849455018552
O           3.91139519613656    6.31203291626553    0.28483536410298
C           4.10725692399554    7.61203117228813    0.59333181485427
C           4.73782272456438    8.25413522276496   -0.43233429847614
O           5.14869373718864    9.53779036988809   -0.56978796792914
C           4.88035684027763   10.38476393886828    0.52481259819005
C           4.93411433566499    7.27454516034283   -1.45518844460223
N           5.57131697340376    7.53262989578829   -2.65470099743211
C           5.23102169580434    7.07286254090530   -3.88595765558299
C           4.08264331331859    6.42711892566188   -4.20310555186718
C           3.75537790480143    5.92772964608625   -5.49811140626653
C           4.69864063285744    5.68544888231030   -6.53379103838474
C           4.27390992647803    5.26664422649912   -7.85523474689009
N           5.19115086694580    5.08758283625084   -8.83190718043241
C           6.45371161376503    5.27142603718786   -8.55600415856198
C           6.88053946568786    5.61578760867562   -7.22971365687333
N           6.00317390374653    5.81221692784985   -6.26982537736013
C           8.25542162373773    5.74294393271045   -6.92851696699201
N           9.37410174535684    5.85598926930451   -6.70206803507748
C           7.42422974265627    5.10778339263185   -9.57724827649141
N           8.24234499451700    4.98934236128955  -10.37035911937371
C           2.93688737045143    5.05429921326651   -8.16125749040061
C           2.00694164636140    5.24811947796735   -7.14932924019581
C           2.41209415105947    5.66400917683373   -5.82842207318311
N           1.35021872431529    5.81418050641550   -5.01758028620389
S           0.01409193102861    5.46030056687781   -5.83100436645072
N           0.67339738088365    5.10781937077665   -7.23966375109844
H         -11.86306103868994   -0.20768418506919   -4.03181792672121
H          -8.58393283188833   -3.44087365899583    2.63575321041497
H          -6.20819860818835   -4.29139208103092    3.18878473996264
H          -6.53493981932842   -2.78708751246491    4.09010460830304
H          -4.85283673803491   -3.28657925496618    3.76853018474372
H          -6.54527456247607   -0.46591420949956   -1.21574450464437
H          -4.50375476381604   -1.48121357866615    0.73854142646964
H          -4.51731990329394    0.39318816023017   -1.69018520212822
H          -2.70092675756550    1.44216565618449   -2.40315740853243
H           0.59257911679940    3.26682778363318   -4.08376372233666
H          -2.36699632975242    2.81062505687742   -4.07585591881952
H          -1.33414578169462    1.45653400965490   -4.56748715764668
H          -0.50732219148742    2.76087789950292   -6.31426307879521
H          -2.06014733091082    3.29337504449860   -6.25913440818044
H          -1.44015866665287    4.05604697695461   -1.96249136845270
H          -1.27811198912253    4.94939362984652   -3.48854769086979
H           0.86969114899033    4.58925603613358   -1.54648426776268
H           0.91358947627864    5.47951490304278   -2.94061887783009
H           2.64801554836236    3.16007546178627   -3.19411793577563
H           4.72079634922718    2.21198740422864   -2.20549824254609
H           4.73160358371721    1.03546801434712   -0.02147430327985
H           2.65900225780764   -0.14083097866865    0.57917269860578
H           0.15744278628891   -0.92144882942561    0.93167819886786
H          -2.26080233475228   -1.31215817723159    0.84684314903520
H           3.38047641653724    3.79718768032351    0.03645351017383
H           4.93747930115398    4.67723600480348   -2.45555420887529
H           3.75044754444862    7.94150378953870    1.54743327231159
H           5.27240695460786   11.36231301815880    0.25187869055262
H           5.37889247625410   10.02656205288138    1.43046893541529
H           3.80496193610864   10.45747490816089    0.71084602107882
H           6.23339183078466    8.29524529171990   -2.61292245177085
H           5.96431282549061    7.27823672641125   -4.65205654380877
H           3.30016875862935    6.34209466452257   -3.46140065387536
H           2.64380349555501    4.76820620562029   -9.15644998840248
