118
 SCF done       -216.195104128773          0.000476194940
C           0.82380843384242  -13.12673606371344   14.12186016360919
C           0.30420136788280  -12.32395022856834   13.11730487611059
C           1.15413796923498  -11.70187219260326   12.12385313314325
N           0.59026615742137  -11.02763946659754   11.11133623850199
C          -0.70826785522310  -10.87094731777979   11.06852726279052
C          -1.53724308253201  -11.38282005608311   12.12953649131073
N          -1.02935997437013  -12.09996944725374   13.08885085954849
C          -2.93226077809829  -11.12311166391093   12.10357333086028
N          -4.05172308344959  -10.89233288615501   12.03911570789084
C          -1.27717271611482  -10.19231057501140    9.96572393910322
N          -1.75146075665605   -9.64337660571609    9.07824515804011
C           2.56482022006542  -11.83085639351768   12.17156727623492
C           3.06735960445206  -12.68588267524090   13.17117171062442
C           2.20019421488299  -13.32383847212775   14.14017477955002
N           2.89696844106905  -14.06553148885490   15.01091440960958
S           4.45195334934216  -13.96461745050744   14.65060586037463
N           4.35190135940177  -12.98756251784320   13.38668814681636
C           3.42595068711435  -11.18741674521846   11.22833435923914
C           4.56721881077699  -11.72439347447775   10.67536315961604
C           4.99877013628383  -10.86533297477891    9.61964026504926
C           6.07083075373645  -11.07251088823607    8.75256070684241
N           6.90297167953695  -11.22525410448539    7.97269698369125
C           4.11134964584654   -9.79993665702273    9.51294332123480
C           3.11846135690634   -9.95182593816777   10.50475286119390
C           2.07166753609677   -9.07722487616673   10.77903163116556
C           1.41926786861747   -8.19178697264745    9.78594617044877
C           0.55284876528271   -7.37603894375721   10.47140309096632
C           0.63109913640530   -7.70558214075709   11.86461919228783
C           1.53095392613420   -8.74128367333778   12.04614590288346
C          -0.10209704218889   -7.07931002356892   12.87995350355685
N          -0.70674979962304   -6.57729958809894   13.71718964431620
C           1.66223567262940   -8.31750862760416    8.39894570499855
C           1.32106236802621   -7.42116790682598    7.43563099396373
C           1.77376454793578   -7.47067594708233    6.07943899024544
C           2.69810521434133   -8.40918395795406    5.63036938677646
C           3.21845702130315   -8.32731703325334    4.33791355954442
C           4.19530070135097   -9.10252148522982    3.69639625524171
C           4.88304389339999  -10.28404040303668    4.26435973395657
C           4.52082573405396  -11.56781718967332    3.48002543827446
N           3.15251975690090  -11.94258365525454    3.76264107356018
C           6.42198260997412  -10.12599910743749    4.32973824450693
N           7.00188196607252  -11.31473718977465    4.91198707637931
C           4.38113929156565   -8.52571462415282    2.38579784514174
C           5.20424823908530   -8.84502448910738    1.36486408350770
C           5.23848234247546   -8.05440469088745    0.10460133677476
C           4.28833872918652   -6.90414038356336    0.06220220308939
C           3.45953135321130   -6.60214353684324    1.07970953242143
C           3.47619067831207   -7.37443991719709    2.26444690335536
C           2.77314152426203   -7.26801838860701    3.45233760479967
C           1.79759218801375   -6.35278924632845    3.90374064061120
C           1.32592294789572   -6.45472775781102    5.17445195981546
C           4.97761161827383   -8.98186264469843   -1.06143636541493
C           5.91397771510044   -9.33066144428038   -1.94563842461315
C           5.70592282524290  -10.21332746224035   -3.06354183066229
C           4.72480542720132  -11.14433999219077   -3.21942471618137
C           4.98048344421330  -11.88938710580409   -4.43711017604634
C           4.14283796737597  -12.87679844957104   -4.96926592205300
N           3.45251023524539  -13.67161072406916   -5.42763448385808
C           6.15385058461258  -11.44907191576332   -4.98955849011355
C           6.64966174520082  -10.36892528441342   -4.18673493267941
C           7.74236871273418   -9.58333695950722   -4.48308941426732
C           8.86496617521000   -9.96143609423921   -5.37048642711389
C           9.64335957034220   -8.84412210766092   -5.54883152195738
C           9.06705794025132   -7.76504941266599   -4.79683108165883
C           7.95123977902472   -8.21931000846289   -4.12438701118702
C           9.57693037005278   -6.46091396319038   -4.75025492014942
N           9.99956781768894   -5.39440403669541   -4.70229568642261
C           9.11658678149477  -11.30005362413871   -5.75792964346665
C           9.98978147186040  -11.70822810157796   -6.71776335209286
C          10.19937939737199  -13.05744969179283   -7.12073545021813
C           9.51255832061895  -14.20166522807356   -6.62715234163395
C           9.80189505138628  -15.53021213408485   -7.12635552991114
N           9.13744383908315  -16.59870842751146   -6.63013569274226
C           8.23930232019461  -16.41778097888819   -5.70148477197873
C           7.94271987699394  -15.10197912573683   -5.21075660391620
N           8.57536719152343  -14.05387099711617   -5.68247314696471
C           6.98535343793532  -14.88126037431502   -4.19195844793017
N           6.23650458722786  -14.68012705374440   -3.34772432549424
C           7.54980405448550  -17.53515954529655   -5.16234943078253
N           6.97918036394114  -18.40727513255852   -4.68824310700782
C          10.75729445740026  -15.75724474500499   -8.10978107123656
C          11.43830093987143  -14.65422347790111   -8.60955907038361
C          11.16209075670721  -13.31982234496799   -8.12294583392577
N          11.92340011155084  -12.40689365396357   -8.73110333752614
S          12.87419212195647  -13.14354750800902   -9.79099864012424
N          12.39093951612531  -14.64931047688673   -9.55144423380202
H           0.17772313424526  -13.56287452371383   14.86386296906984
H           5.02828040246121  -12.65422504287099   10.94676520978847
H           4.24352111172122   -8.94484043577217    8.87638966471689
H          -0.11496578374105   -6.64288280617952   10.06198170147720
H           1.82939484901265   -9.15996543589683   12.98973880665482
H           2.20371915962020   -9.20725596246488    8.11421063864659
H           0.72455365944653   -6.56198268112955    7.71054821858959
H           3.04636968327660   -9.19255445648765    6.28433364040189
H           4.53726100775073  -10.43537987462689    5.29176180316767
H           5.26320218541005  -12.32554963969035    3.77460892947549
H           4.60643875011138  -11.38903939789760    2.40708024617980
H           3.06037114031468  -12.30351804525693    4.70504235711771
H           2.81786189523509  -12.64352621795355    3.11440691672781
H           6.64188099472502   -9.20535000871041    4.89386456707641
H           6.82399478655373  -10.00796803734871    3.32189716557308
H           6.85213525787404  -11.35163211447038    5.91758888668558
H           7.99870870703111  -11.36108681183200    4.74580529621247
H           5.86918872648827   -9.69576157377561    1.40042725834045
H           6.26266175768872   -7.66726366545787   -0.01223766573182
H           4.28845079172877   -6.32643031575132   -0.84963214792004
H           2.78089819807173   -5.76490526818141    1.00962154715454
H           1.44525842555579   -5.57531421145829    3.24248731447452
H           0.59004646635103   -5.75138962646424    5.53556280975840
H           3.96335476790379   -9.34212739216529   -1.14211145598549
H           6.91838712827247   -8.94365391339940   -1.83166194091675
H           3.90423200616515  -11.34736370735006   -2.55818111812271
H           6.55792717075333  -11.76514700779652   -5.93152080338448
H          10.55893589722801   -8.77255561481489   -6.10466831890844
H           7.28176796503067   -7.60834287123604   -3.54961801477869
H           8.56079839876768  -12.05727796458241   -5.22808168201235
H          10.57548927048384  -10.98283687499536   -7.26667143321040
H          10.95414246054980  -16.75581020026873   -8.45976466714791
