96
 SCF done       -188.753423428190          0.000819309022
C           8.26273445830592   -0.01333862338898    5.47973965316592
C           7.22417919327914   -0.92762264993736    5.56616455007285
C           7.19793409088730   -2.12993939775690    4.75875697808638
N           6.23842198829050   -3.03853442516224    4.97876948512821
C           5.28787100483178   -2.80010311550172    5.84734316962914
C           5.23559381293731   -1.53369379153316    6.53272170573876
N           6.19445183174082   -0.66507492335097    6.40318977678007
C           4.13305583421443   -1.25596517605762    7.38170996730631
N           3.22343803893621   -1.08274290995999    8.05497396656441
C           4.32872789819073   -3.80487301994115    6.10804420467087
N           3.54549531917339   -4.61133538731058    6.33590292564087
C           8.19393907772751   -2.38694243746029    3.77983431059666
C           9.26103303262720   -1.46701844576816    3.74040260817608
C           9.29105510667797   -0.29081645882376    4.58491118300574
N          10.38258232946731    0.45048402731841    4.35788233209417
S          11.25824484918009   -0.25015993650719    3.21724387512059
N          10.32627907425378   -1.52082930388392    2.93524970720186
C           8.15734697063515   -3.53573837042453    2.93306391313636
C           9.23673926272671   -4.26885771386168    2.49346584318642
C           8.74601969921814   -5.46855963684841    1.89385414140521
C           9.53839834592662   -6.46582845662317    1.31699040076455
N          10.18244260645843   -7.29861773162317    0.85660624024520
C           7.35705695530320   -5.49151799702561    1.98895279852571
C           6.94369483153005   -4.28810964451181    2.58997442513324
C           5.64869200480300   -3.80001677351077    2.74653576013547
C           4.42555552465554   -4.58713526238134    3.02447818634204
C           3.36107037390240   -3.70306865435223    2.99988465520823
C           3.85944708752960   -2.40399986379830    2.70029845004200
C           5.24120423872765   -2.45574843250159    2.57593109688414
C           3.07516770988401   -1.24926834512216    2.57540541781817
N           2.44246472006425   -0.29601738118555    2.48447840110998
C           4.45516538246148   -5.92973741690882    3.43093724634015
C           3.36344765657759   -6.64730662005516    3.84602436287128
C           3.41469390181461   -7.98131121633087    4.27192746236932
N           2.27966168464830   -8.64692736925577    4.68706964544213
C           2.61645134470451   -9.91475505909410    5.03388371483903
C           2.11992340674627  -11.11621218022051    5.49376618461008
C           3.22506706229782  -11.99774286005265    5.56441778492278
N           4.36225242236566  -11.33015201883558    5.15839363736485
C           4.02668662748989  -10.05770815627816    4.82272555103811
C           4.52200077780104   -8.86319259294061    4.34925405027124
C           3.28129857726169  -13.34246351425881    5.96650340789318
C           2.18891011036461  -14.10810690602309    6.27327281729279
C           2.19662392958348  -15.45541197925552    6.67822141228551
C           1.12905522439632  -16.31674849469827    6.49989425619227
C           1.55970105069360  -17.63989385671084    6.79518073650077
C           0.80418815078552  -18.80855742932075    6.64066178877728
N           0.23012423361714  -19.78790671121526    6.46806410662729
C           2.89362255389430  -17.61286533075611    7.17478610210436
C           3.34630695520221  -16.27207171295027    7.13832629629217
C           4.59309319656283  -15.82986325651215    7.56136488570435
C           5.84691007572964  -16.61727781366599    7.57694689789828
C           6.77022392390402  -15.90025853187273    8.30334501342610
C           6.16727714976357  -14.67198398359241    8.71852775541545
C           4.86901854591648  -14.61435608403534    8.23539976792284
C           6.80053035316896  -13.68162916784431    9.47893134291716
N           7.32353885653329  -12.85838233987224   10.08534266167235
C           6.09476538511601  -17.80627807704623    6.84643391778532
C           5.32100681348531  -18.20578888548975    5.80092132921137
C           5.33487798010749  -19.46788785073979    5.15219230095391
C           4.22520780619092  -19.80096209416435    4.32961491093954
C           4.11549815473547  -21.07967955926453    3.67313530901725
N           3.02597741090854  -21.35856012995151    2.92114543750197
C           2.07585632183661  -20.46901053783840    2.83508616381313
C           2.17596565943902  -19.20292358711996    3.50833555468452
N           3.23744502219378  -18.90060954475884    4.21633420315415
C           1.14450040327268  -18.23721282104520    3.42441559898028
N           0.32448716603994  -17.43889633178633    3.36146768394407
C           0.92856992847509  -20.74195443180346    2.04478707071588
N          -0.00594262566747  -20.91079828141544    1.40530258141336
C           5.10940480228051  -22.04309454263436    3.80289631256037
C           6.20033050174617  -21.74115168932732    4.61066754744183
C           6.31432172631054  -20.47079493516443    5.30108309269884
N           7.43042917906621  -20.40571901430195    6.03066386202479
S           8.24363637664233  -21.77999904739010    5.86348374498668
N           7.24645727097922  -22.53670418680741    4.87153671737657
H           8.25327918625996    0.88470836128282    6.07271304779009
H          10.27191291318327   -4.02005957120776    2.62408917101165
H           6.71489728782078   -6.23403152391212    1.55291510225634
H           2.32801857198227   -3.92172201522620    3.18997318624645
H           5.88219846411204   -1.63274199690307    2.31870397329822
H           5.42282992695171   -6.40832723241089    3.44917883181021
H           2.39549093517536   -6.16724425317063    3.86409481962133
H           1.37022216811454   -8.22297179232150    4.75863786823380
H           1.11058789401454  -11.36017605744589    5.75421843427469
H           5.28153768266468  -11.73710444325647    5.12630149754867
H           5.53213892949589   -8.62352890771438    4.08783784107274
H           4.26457218559045  -13.79285518580020    5.99275736175395
H           1.20645858782084  -13.68505662828079    6.10908903628506
H           0.15492853353163  -16.05845259193500    6.13065095998752
H           3.45599476659242  -18.45343510727664    7.53317294097978
H           7.79126801152051  -16.17502312374463    8.49053292466155
H           4.15124568631897  -13.84743855787331    8.45843533292594
H           6.94899655454393  -18.40385363569862    7.13662852313427
H           4.54636957565088  -17.54616164131278    5.43632853395743
H           5.01986643026991  -22.99350570426376    3.30565825919820
