81
 SCF done       -176.249805136924          0.000634920028
C          -0.99621881682786  -10.67827398740684    9.48291674112294
C          -1.83877498631988   -9.57715018558448    9.35798410911713
C          -1.96666551806550   -8.85749774939740    8.11218343786688
N          -2.79971748325079   -7.80481898732810    8.02673044977131
C          -3.47605320085225   -7.44483097035952    9.08559979852266
C          -3.34844271192490   -8.16211773543041   10.32917134179019
N          -2.55187522945125   -9.18829530491973   10.43745757313965
C          -4.10465525943435   -7.74275346855541   11.45514806305642
N          -4.73082243601846   -7.37264112914301   12.33905457866226
C          -4.34426960479724   -6.32666443802842    9.00575960227098
N          -5.05088972987498   -5.42597326106564    8.97944205596260
C          -1.26131716961479   -9.26032824117344    6.95851663878933
C          -0.39670608662076  -10.35670351230858    7.10569842108372
C          -0.26622751662263  -11.06034670582993    8.36687364904223
N           0.62636292530248  -12.05745014967235    8.28281161662179
S           1.23420534054566  -12.08408661687461    6.80685833175755
N           0.42140033736624  -10.85990549516745    6.17484216119184
C          -1.40980760749063   -8.59241519602181    5.69757688515965
C          -1.59366304608049   -7.14747819518939    5.49527141072962
N          -1.62823567202917   -6.78723424736925    4.24791788640109
C          -1.50402878129024   -7.93464379249770    3.52419257784523
C          -1.35893426945807   -9.10008928509046    4.42375991115275
C          -1.30579827082356  -10.31151793752632    3.63903112449701
S          -1.33645980080249  -11.87086897644756    4.16490293787932
C          -1.33656612541514   -9.85647831681173    2.28032781620844
C          -1.46648707163338   -8.39458555048600    2.23525343869490
N          -1.50621142476520   -7.95962630101088    0.93704607040600
C          -1.40805095712587   -9.02636965579315    0.20434051374368
C          -1.30107600102427  -10.28156364353422    0.96611598652898
C          -1.17158550109184  -11.60186801768015    0.49038657179800
C          -1.04240355656548  -11.97695283402582   -0.81237886581643
C          -0.87274883928953  -13.32742910860661   -1.18092752879640
O          -0.88594403839829  -14.30716823133421   -0.24367689747183
C          -0.65312973538057  -15.49271715382977   -0.85926680794781
C          -0.48358471678369  -15.27437630791897   -2.23111510930231
C          -0.63244602569533  -13.89202118184772   -2.43943888692256
O          -0.55478209320008  -13.22061269841731   -3.59976920696761
O          -0.22434130039807  -16.16437007037997   -3.21207960323452
C          -0.59941967666203  -16.70089981882913   -0.14023137447389
C          -0.81368105833290  -16.80513253118083    1.20134577174732
C          -0.71262711149974  -18.01603883490801    1.91704134022178
C          -1.02041112418861  -18.12661725967801    3.35005647957226
N          -0.84003659686037  -19.30789200666957    3.85437555229122
C          -0.39672175168408  -20.08091263322410    2.82002329904298
C          -0.32566676786392  -19.30200610428156    1.56890480236484
C           0.19770837637710  -20.13170361002994    0.52061843298322
S           0.60158110475713  -19.71884318768841   -1.02473543674866
C           0.41554412309996  -21.41856963393233    1.14070132931808
C           0.06113742079880  -21.34539730828042    2.57040660410786
N           0.34481680582544  -22.52106412058587    3.19656477689546
C           0.87528867657109  -23.28530519786738    2.29033967117428
C           0.95734200341189  -22.66682579164175    0.95973733369167
C           1.47159119921383  -23.29103555737910   -0.22501797242444
C           2.59647497046394  -24.14132254090186   -0.18744605652667
C           3.13765431403261  -24.72238232666652   -1.39354104305334
N           4.23519696203782  -25.50794513107770   -1.32882928308851
C           4.78854125785670  -25.72100751942112   -0.16783021117310
C           4.25122673597210  -25.13529131925712    1.03463422083597
N           3.19133100267140  -24.37159034663503    0.99678978053021
C           4.87801605846218  -25.38930601806773    2.28088292066273
N           5.40983457510380  -25.61852623051922    3.26895368336618
C           5.94311059687503  -26.54292202914166   -0.08410079653557
N           6.87432143863043  -27.19957767983457    0.02572179838035
C           2.56020840554433  -24.48915603567158   -2.63834169350198
C           1.43152899141729  -23.68316753569771   -2.68480313129985
C           0.88631587986981  -23.08212312248919   -1.48296111507708
N          -0.21888407300205  -22.37514113337166   -1.74242391836745
S          -0.51865431340883  -22.44344080360964   -3.31192620485193
N           0.70519522263908  -23.36441860321740   -3.76573311274011
H          -0.92027409371619  -11.20237469602282   10.42045718878222
H          -1.67147140051814   -6.42248061529608    6.28463667242890
H          -1.41306949540047   -8.94778784610814   -0.86866719491588
H          -1.15294807711607  -12.37379801398976    1.24880072340114
H          -1.03525073749908  -11.26336797541115   -1.62162873873491
H          -0.36826527673537  -13.84853009350870   -4.31107708103715
H          -0.09890442805687  -17.04805526528553   -2.84297876260426
H          -0.35987412613551  -17.59258350756260   -0.70472741576730
H          -1.07368004205354  -15.92024590553885    1.76590638842922
H          -1.37526198194610  -17.31408652502555    3.96091709302559
H           1.19040675128336  -24.28594366848299    2.52277051459463
H           2.98348124101465  -24.92817927596223   -3.52575462922146
