146
 SCF done       -258.298950228835          0.000696285919
C          -0.55351902030146   -7.83097026193826    0.65333064159297
C          -1.36997231606969   -8.57505150448304   -0.18740960267624
C          -0.83997898820274   -9.45237849234312   -1.22043557577747
N          -1.67073309621631  -10.32890042459542   -1.81509931981313
C          -2.95112617668896  -10.27794052361288   -1.54594249163450
C          -3.49621217453407   -9.20082312752770   -0.76342547879048
N          -2.70458657771539   -8.42632393494063   -0.06554079529141
C          -4.88714904191748   -8.95978412983066   -0.71898012525819
N          -6.01666142345485   -8.75648697281097   -0.71050954355200
C          -3.82364978543520  -11.33562746412493   -1.88694617771973
N          -4.57903397220915  -12.18635611283028   -2.03520413251458
C           0.52768443099437   -9.42387186997431   -1.52899588950880
C           1.34068500806980   -8.66511694494486   -0.67447895836479
C           0.81484740346313   -7.90754389236336    0.44284854032697
N           1.78656142176883   -7.29330200693310    1.12852622484369
S           3.19487353113101   -7.64008069011766    0.44586899091771
N           2.67451884879894   -8.56436656595259   -0.75275443189534
C           1.18696178687389   -9.94459703882955   -2.74412755876116
C           1.60264283326681   -8.95952019410872   -3.64917869172761
C           2.37642154990048   -9.24649487543090   -4.75337736959849
C           2.77676562399561  -10.55322471626912   -5.00759764811691
C           2.34610174170045  -11.54126934633134   -4.15614348278539
C           1.56793704520372  -11.25083457802330   -3.02278648304529
N           1.36105876356126  -12.41445541902956   -2.30316869728774
C           0.62560306421213  -12.52075480287562   -1.07359240156883
C           1.93839669256146  -13.49828818077843   -2.91237280195858
O           1.92546334985010  -14.62463839110504   -2.47741326615688
C           2.54180257670617  -13.02416053981896   -4.23280784351688
C           1.71094457292724  -13.62436204111406   -5.40524500249191
C           2.21540859847281  -13.00638021748119   -6.70767968291377
O           3.25196538197721  -13.23793965681197   -7.28370598316982
N           1.29629747047589  -12.06898472881429   -7.09629847835213
C           1.46737692506617  -11.21411090033730   -8.23822680965951
C           0.20228157456788  -12.04299732325235   -6.24155620576857
C          -0.84660706351059  -11.15034932458349   -6.19801509776121
C          -1.81344513656702  -11.32732390217708   -5.20471825836159
C          -1.75111541360486  -12.43030636252102   -4.35525757584099
C          -0.67193350349191  -13.29973006112521   -4.38202352775828
C           0.32691155474527  -13.06987870420659   -5.29854420896578
C          -2.84507448155185  -10.31150244659063   -4.96606868186024
C          -4.13767229807380  -10.66507865030391   -4.66982002583675
C          -5.06825741975548   -9.67767151035164   -4.28987818730031
C          -6.38543351788153   -9.78462827012168   -3.84711931555370
C          -7.12094501105301  -11.04866725966270   -3.62642456603509
C          -7.75301206475198  -11.15541054427206   -2.22394453188134
N          -7.88544160670905  -12.55994216069756   -1.86914040871954
C          -8.20789623389099  -11.27925455106355   -4.72084909387764
N          -8.79771023515805  -12.58883686455736   -4.67751628777423
C          -6.85419117727129   -8.43831417043232   -3.61345986852896
C          -8.04957831890267   -7.95904826770538   -3.21940273523282
C          -8.31686213054970   -6.50149405621018   -3.13409607494901
C          -7.12681862894242   -5.63111955801426   -3.38375149363230
C          -5.92320998381858   -6.12621464022482   -3.73442158175476
C          -5.74754623726210   -7.51712010097487   -3.89279633454408
C          -4.65914760346236   -8.28670824324850   -4.28483134697563
C          -3.33242333404490   -7.94988249593940   -4.62112303948816
C          -2.45349783250313   -8.94119866289274   -4.94111416341880
C          -8.97246805119621   -6.08867163365841   -1.83442286246566
C          -8.72840214858929   -6.64681152273113   -0.65360929840646
C          -9.36361127047687   -6.12855866683739    0.56200772868359
C          -9.42616233618359   -4.74118057693417    0.74102422191081
C         -10.09281378449411   -4.15589142830005    1.79730916904235
C         -10.74691214426512   -4.94396806835831    2.73557458273111
C         -10.66636349897582   -6.31163012946293    2.60673708441996
C          -9.97628845098536   -6.90908683987577    1.54201795627321
N         -10.11691771023294   -8.29049985726641    1.62993237478445
C          -9.53839065423764   -9.27589257628583    0.75488070566061
C         -10.90079781272896   -8.65322010882370    2.69154584689181
O         -11.20595536714990   -9.79031580947674    2.96679548315987
C         -11.27702881468343   -7.38599476022359    3.45334227801975
C         -10.69620712712116   -7.44991148852243    4.88828171545971
C         -10.80224446626154   -6.06229077755155    5.52078091943913
O         -11.80671666604416   -5.47942633685457    5.85473209313885
N          -9.53524983415792   -5.55234879184440    5.60464159026956
C          -9.23888397152107   -4.23428969784828    6.09454136345243
C          -8.58191094462538   -6.48946517412501    5.23274832255369
C          -7.21077204267450   -6.36711782448745    5.21767005549777
C          -6.44601100398193   -7.49334429917666    4.87850500713678
C          -7.09198694118879   -8.70405108462360    4.60511978523090
C          -8.47414775290923   -8.79935991430543    4.57155799266473
C          -9.21972362089331   -7.68125006204101    4.86628154407741
C          -4.99101188302380   -7.39641543787394    4.83411865129264
C          -4.21156790964570   -8.21714373680149    3.99096235134029
C          -2.76328033280377   -8.16868722205092    4.00063109642663
N          -2.04761974155003   -9.02936332725727    3.24334400289004
C          -2.68687243696605   -9.89467076423307    2.50287475374312
C          -4.12151954266399   -9.88960265768748    2.42708812508816
N          -4.83087640279048   -9.05637313391116    3.14289207263637
C          -4.79138355357377  -10.80367941108289    1.57981478622706
N          -5.30530324711113  -11.57904891294372    0.90890208489425
C          -1.96061385935670  -10.82427698763063    1.72262706698102
N          -1.42588342213926  -11.57846491905156    1.04425547173670
C          -2.07173517115672   -7.26726731636116    4.79655728540882
C          -2.82111278330155   -6.42894817497947    5.61087263556267
C          -4.27153056091795   -6.49117889641652    5.63728055724709
N          -4.77392663321899   -5.62191311187797    6.52333088223262
S          -3.57151129351090   -4.82488202118952    7.22285035398751
N          -2.34336732050032   -5.51610531449430    6.46518873386691
H          -0.97839483044557   -7.20748713295090    1.42118860015004
H           1.31285750946823   -7.93612125303053   -3.45696007060293
H           2.68667275265771   -8.44864129614527   -5.41085686618677
H           3.41796287022908  -10.78301173877220   -5.84426047755334
H           1.04114542700939  -11.85595698698035   -0.31530925422201
H           0.70286240745067  -13.55180793292889   -0.73191790821743
H          -0.42272820555338  -12.26566162691079   -1.23107258361348
H           3.58324316115202  -13.33393894585992   -4.33999258187643
H           1.79741586832460  -14.71096867259457   -5.38999255010653
H           2.39910300566342  -11.50021174471353   -8.72499026240263
H           1.52369524131507  -10.16792811971439   -7.92887091527712
H           0.63864988950627  -11.33845772361342   -8.93786619032893
H          -0.92063270402555  -10.33117624832631   -6.89631800121451
H          -2.52136186868478  -12.57351137198994   -3.61634155671606
H          -0.60772437679633  -14.11692112041019   -3.68067592166408
H          -4.43888318361992  -11.69975950158144   -4.72589660715945
H          -6.40364565367305  -11.87127803481790   -3.71144785461690
H          -8.75635220929231  -10.71947929553152   -2.22456411076563
H          -7.13624489690047  -10.58954763093131   -1.51121556657876
H          -8.35657115716596  -12.65093056555132   -0.97513388580833
H          -6.95806284118774  -12.96139343724527   -1.75872194579511
H          -7.75899066842885  -11.12680655899793   -5.70614595034594
H          -9.00331845697245  -10.53990986751860   -4.59100438389931
H          -8.12728062658332  -13.29677317564870   -4.95528830467330
H          -9.09179911101599  -12.80624724054239   -3.72896693588108
H          -8.87833402738878   -8.61058079080734   -2.98660954060967
H          -9.05089242407742   -6.28517109952421   -3.93000795995133
H          -7.28138958908803   -4.56938708001349   -3.26530290012992
H          -5.08520963416857   -5.46621339079824   -3.90763928929042
H          -3.02124456710802   -6.91511832207248   -4.60658330838964
H          -1.42184426140823   -8.70577742467316   -5.16000652239505
H          -9.65725714516457   -5.25460241055709   -1.90912230501917
H          -8.04481658037432   -7.47763239386604   -0.57265977550625
H          -8.92552441238422   -4.11390716652233    0.01870100828702
H         -10.12211882656568   -3.08051378574757    1.88437090388198
H         -11.31330947890853   -4.49363394189133    3.53465887050500
H          -9.83112027714087   -9.08943166651899   -0.27900764568933
H          -9.92309080988923  -10.24537927875804    1.07277189470723
H          -8.44988762130188   -9.28011700573522    0.83323453876913
H         -12.36292119989003   -7.28201751952754    3.52903552947160
H         -11.24925736458411   -8.20238497728746    5.45379259632066
H         -10.17975623419991   -3.77961665569217    6.40268593366438
H          -8.78175956586357   -3.62994847949859    5.30798695148344
H          -8.56134890694624   -4.28706671238665    6.94856751907335
H          -6.72773385881478   -5.43619857730060    5.45908957545055
H          -6.50812301933854   -9.59047594215334    4.42666997223318
H          -8.95110283225250   -9.73767782386501    4.33553326163000
H          -0.99529214886410   -7.24766287252070    4.79694914122060
