89
 SCF done       -181.686499806080          0.000612206146
C          -2.14411306415403   -5.20528063001303   -8.19264558056555
C          -2.44809692670036   -6.23166083555521   -7.30537795777506
C          -2.05081078163614   -6.16580483027940   -5.91960220989923
N          -2.44281807451655   -7.12547247541709   -5.06749806432846
C          -3.10813640942134   -8.15732651183892   -5.52341986093094
C          -3.41861091139818   -8.26898455337856   -6.92288211324094
N          -3.12139973755114   -7.31236568834040   -7.75935418428982
C          -4.09757012648345   -9.42515171729739   -7.38710568851470
N          -4.64465819512260  -10.37779144346141   -7.71032187297754
C          -3.49560578095866   -9.16088455949776   -4.60129405812637
N          -3.78266595745568   -9.98688192354621   -3.85997042711855
C          -1.29765189933150   -5.08363656603723   -5.41213720064622
C          -1.03841523514311   -4.03329300450212   -6.30764467268712
C          -1.45607562692124   -4.10541437442203   -7.69489972365075
N          -1.08225556447028   -3.01277091074610   -8.37561061806322
S          -0.30555883121504   -2.02578290422027   -7.39020428242656
N          -0.38073437796341   -2.89836348225132   -6.04939529455174
C          -0.88851273017791   -5.06300542647350   -4.04038969530033
C          -0.80070582130906   -3.87190655479028   -3.18951678123378
N          -0.63918615267126   -4.13520454777485   -1.92697665777635
C          -0.57166461052579   -5.49317905372205   -1.83376150273246
C          -0.65680460188123   -6.10564126502594   -3.17481590163444
C          -0.54191609886946   -7.53844248719352   -3.06889267507047
S          -0.20965945259124   -8.57916547883119   -4.29925704369569
C          -0.64664750641207   -7.79419040318772   -1.65858988477479
C          -0.61031312563115   -6.50960877933064   -0.91975704256700
N          -0.79261881534185   -6.72380795350405    0.41325159785805
C          -1.03504612782325   -7.99514820284818    0.53455447095150
C          -0.99997216485718   -8.74276832673034   -0.72854915105132
C          -1.32169116778421  -10.13169589401686   -0.91169786531220
C          -2.35749775903895  -10.74065969802442   -0.15839330630014
O          -3.00102724020565   -9.95274963606551    0.73556930988894
C          -4.08657732371483  -10.48597669746402    1.45849601072304
C          -2.66894831524935  -12.06134207934741   -0.40997131714107
C          -1.97752848783940  -12.83553962492144   -1.35215870387349
C          -0.95014200086241  -12.21403652898096   -2.11617781328302
C          -0.65822624007999  -10.87898585643888   -1.88144686048972
O          -0.33409919906631  -12.95756670537414   -3.04642445025353
C           0.64356434931254  -12.37841203096125   -3.89750300899648
C           1.07997359810951  -13.45781458118599   -4.87505357696973
C          -2.35731935577883  -14.21084507777400   -1.48530215014760
C          -1.62385505376554  -15.20551846133429   -2.04466380532322
C          -2.02866664056237  -16.56106435499963   -2.09161956852514
C          -3.36056739127577  -17.13421327492448   -1.83861883125093
N          -3.41832737694774  -18.42885017317938   -1.92544242392442
C          -2.14604361284218  -18.83608125439316   -2.22352646599653
C          -1.25560414520413  -17.67242913916267   -2.35898586867706
C           0.07656887785279  -18.10866129484851   -2.64320523290843
S           1.36687874499551  -17.19783246492688   -3.10919390485327
C           0.00983097655401  -19.54886972405540   -2.57338839928115
C          -1.39417449046324  -19.96802384162926   -2.38944393258713
N          -1.48980976239645  -21.32871594626108   -2.39544693365668
C          -0.27931382771583  -21.76899223013091   -2.56280900339686
C           0.73686834089147  -20.71181259671430   -2.65196808509242
C           2.15181385965137  -20.92418353203302   -2.69009079707300
C           3.04441767497532  -20.01345702037184   -2.08326791665833
C           4.47341107005521  -20.21066356780399   -2.13278552337331
N           5.29961517512202  -19.30698541923362   -1.56040394530846
C           4.77812184064308  -18.28560712505955   -0.93693829896954
C           3.35454586667965  -18.13795289284838   -0.80964077110472
N           2.53519963180869  -18.98034644779406   -1.39015291529526
C           2.80760450353709  -17.07051505723848   -0.05634004839221
N           2.38274154644849  -16.19410037838412    0.54742678656268
C           5.62884989768050  -17.31923691964055   -0.34011452151034
N           6.27491044848135  -16.51285884281762    0.15348371288685
C           5.03166067820524  -21.31815619321567   -2.76196843767931
C           4.16475695581497  -22.24655656307012   -3.32369777184767
C           2.72733650283561  -22.06264706086475   -3.28098854426019
N           2.08500882129138  -23.06665679056638   -3.88620737317645
S           3.16250671304308  -24.11727297559636   -4.43486627480714
N           4.49590104384583  -23.38101720134322   -3.95651402104932
H          -2.42537043474968   -5.27620039621236   -9.22953575114685
H          -0.87192066799141   -2.86082826989887   -3.54768115870968
H          -1.20505155849882   -8.43166757639926    1.50183922639136
H          -4.44568100670912   -9.67203265444835    2.08609720520651
H          -3.77493288480945  -11.32198795042384    2.09221293369024
H          -4.88965302274610  -10.80926390775440    0.79004264448378
H          -3.45895719466324  -12.54376524144693    0.14362315679838
H           0.11965896477471  -10.38916141323469   -2.44213332404200
H           1.49940243230749  -12.03463529580043   -3.30233441379760
H           0.21556784756034  -11.52203164738982   -4.43316968707667
H           1.48778600699874  -14.30955123830881   -4.33663040335381
H           1.83991710290529  -13.06299845088607   -5.54258858771042
H           0.22973702848032  -13.79353262361115   -5.46253923932125
H          -3.30247625486113  -14.46754476796074   -1.02214930003247
H          -0.63885501759597  -14.99933084598394   -2.43382449965399
H          -4.24962046473010  -16.57036162541145   -1.61559592401388
H          -0.06870945039212  -22.82189102556916   -2.61226030472590
H           6.10063555630921  -21.43811702362703   -2.80945564835118
