120
 SCF done       -200.374968683531          0.000969455017
C          -0.82183630793907   -0.36391141311854    5.89472316414497
C          -1.57982118707433   -1.45319734534079    6.30212226114654
C          -1.21516441240659   -2.81124562367298    5.95568284430613
N          -2.04311815548831   -3.81997946594497    6.26117896901248
C          -3.14103858824032   -3.56717169053286    6.93216623173821
C          -3.45100928896536   -2.23193001559175    7.36566693077672
N          -2.69005229038425   -1.22377300352371    7.03907283905524
C          -4.60496866635362   -2.00970616179197    8.16037761535333
N          -5.54560592435358   -1.87891633261385    8.80025994483723
C          -4.01214424075875   -4.63887607524989    7.24096695901483
N          -4.72041759174450   -5.49646704883014    7.51824830812211
C          -0.02881716704770   -3.09572188867654    5.24037679452642
C           0.70206226088289   -1.97471645184528    4.80080488944054
C           0.30983457438299   -0.62036037677486    5.13094240000639
N           1.16434293866931    0.27730837886010    4.62334295028760
S           2.32266700747826   -0.49759734813455    3.83406520411950
N           1.82682646576455   -2.00094272194339    4.08106080702354
C           0.39886153519393   -4.42040916636006    4.89522155941411
S           1.10240950092570   -4.63064117759393    3.31932224409699
C           1.28158818859290   -6.33538803390419    3.57225507844451
C           0.81557772021288   -6.71265388141166    4.82077119785026
C           0.35862878337754   -5.61887314092030    5.59076757109611
C           0.03320829416324   -5.73977147585253    7.05535120319515
C           0.82301166983534   -4.72101516991714    7.88333309487199
C           0.34817184927637   -7.15044904301144    7.55601281694169
C          -0.16766183792327   -8.18138782349678    6.56689112162337
C           0.66451637816159   -8.13945307499171    5.28378411070048
C          -0.00733543580306   -9.00818054360025    4.21665140425099
C           1.95276977765120   -7.08649514035296    2.53104782331604
C           2.85558308011953   -8.07808106394337    2.83250365957309
C           3.58198681383097   -8.71456293106992    1.80510191906079
C           4.56511383610497   -9.69396302534390    1.84345376131139
C           5.08151582785098  -10.45703247264463    3.01709353457526
C           5.81499574064856   -9.54281144143590    4.01704433116280
N           6.76314497163207  -10.33179866247340    4.78008228638500
C           3.94288938645608  -11.24801630907800    3.68717330487037
N           4.46863948867915  -12.16245331232368    4.69052351688151
C           5.02739888399372   -9.86954291348271    0.48683093523242
C           6.05204283875333  -10.58373860980163   -0.01498469570319
C           6.41603109903143  -10.50754684982804   -1.45954252829330
C           5.43342794191057   -9.76624188911801   -2.30683268794397
C           4.43035268393860   -9.03409939108897   -1.78618648154328
C           4.22133896071943   -9.00774763279465   -0.38750590627992
C           3.35698082447838   -8.30076194061951    0.42586332292070
C           2.40564883422826   -7.29452715765208    0.14520698326407
C           1.73588014202475   -6.70505665331511    1.16748237639850
C           6.75478425248856  -11.87809745096292   -1.99199968889459
C           5.85229125788394  -12.70372943561189   -2.51951005948883
C           6.14308814416651  -14.03173435477686   -3.00688544086577
S           4.96449299059790  -15.25937282145015   -2.68196291004048
C           5.97286677248064  -16.47952621560436   -3.40347451394630
C           7.17886291389130  -15.95059167794732   -3.82775456121447
C           7.25187436413635  -14.54800683875659   -3.65054440544610
C           8.36347781024951  -13.71761093822681   -4.23998414818102
C           7.80892950687891  -12.58059386185607   -5.10287160112558
C           9.27544131922985  -14.59746180451651   -5.09737822409467
C           9.60794199043229  -15.88340701124316   -4.36078708800534
C           8.36386596043258  -16.76870853563197   -4.26662241091994
C           8.63631651894976  -17.92084251399167   -3.29466184940679
C           5.44157352043802  -17.81197946987512   -3.47510219290888
C           5.59722449594073  -18.64914805777521   -4.60256833158570
C           5.07561860625431  -19.99926648867487   -4.61799205197943
N           5.29917834095489  -20.79306146169570   -5.68939143135453
C           5.92999050633029  -20.30017781653740   -6.71963299477321
C           6.35753572436829  -18.92713681315673   -6.74161574906541
N           6.19468368291271  -18.15343350283136   -5.69658575196107
C           6.98187400708876  -18.39031462929297   -7.89336939963175
N           7.50195763661059  -17.97391452445063   -8.82592441624467
C           6.19682935973328  -21.12904805197615   -7.83957887697435
N           6.43654881066974  -21.76329103690034   -8.76255833628145
C           4.34286869347292  -20.51211898196129   -3.55579547304640
C           4.12148050224500  -19.67778891963204   -2.46755776255680
C           4.66251484214880  -18.33459072156667   -2.42684012039416
N           4.35511766130536  -17.71252524795150   -1.28484386116036
S           3.47441654613399  -18.69693136483278   -0.37850807195060
N           3.43427662692339  -19.96491875265489   -1.35418903928359
H          -1.11585259297683    0.63699387884676    6.15901216199086
H          -1.03690936867910   -5.55651369170543    7.19210348381535
H           0.53592387414064   -3.69919021099414    7.65158532362834
H           1.88949570584848   -4.82541159517305    7.69187801314609
H           0.64397587660138   -4.89350304323887    8.94251451114132
H          -0.11317064985385   -7.29375335229618    8.53424906249063
H           1.42874782166806   -7.26712477297347    7.67347461429478
H          -1.21230940174252   -7.96573732568562    6.33300989347828
H          -0.11771276821918   -9.18360175926363    6.99616089242139
H           1.65436799244725   -8.55503038867727    5.51010131588194
H          -0.95761538335434   -8.56743040630527    3.92412805905150
H          -0.19958425281777   -9.99938184523289    4.62198343781054
H           0.61137394293916   -9.11272676335517    3.33045408384764
H           3.05650212911821   -8.32855315592445    3.86066036728229
H           5.82349237026463  -11.18093551257380    2.66579722058681
H           5.07475904366238   -9.01973104394020    4.64314760720486
H           6.37608580312095   -8.78368608355114    3.46089283398257
H           6.25439006268392  -11.06393915221604    5.26904373694536
H           7.23355707187345   -9.75325546051411    5.46760769219567
H           3.36933688639223  -11.76068540219137    2.89560096283492
H           3.26110147543993  -10.56106242401395    4.19329554425788
H           5.04356905276913  -12.87143723113517    4.24555806045987
H           3.70751855414343  -12.63655947202544    5.16514077766848
H           6.68163064883501  -11.20347284585335    0.60847285299975
H           7.35397345614234   -9.92477704296367   -1.49064680430821
H           5.60347332524126   -9.80588473141392   -3.37202530131409
H           3.77004888258330   -8.46810230447088   -2.42691399826035
H           2.23314409422291   -6.99377240690463   -0.87749177771968
H           1.01368777346719   -5.92641660170723    0.97285462339736
H           7.78554069954282  -12.18501337261050   -1.89895954811562
H           4.80920930157681  -12.41205027980870   -2.53742587055692
H           8.96519522498606  -13.28954509589748   -3.42958575042342
H           7.15922981894967  -12.98525222031853   -5.87540777536980
H           8.62990265052738  -12.05478360582478   -5.58506006432590
H           7.24065952267967  -11.86877876759712   -4.51279876254890
H          10.18569848244548  -14.04565182232279   -5.33759161731115
H           8.77182143947127  -14.84148662555919   -6.03509778949637
H           9.96838793814564  -15.64675900272663   -3.35639064495367
H          10.39634877358997  -16.42896873926336   -4.88126574581880
H           8.15876937957241  -17.18066958287123   -5.25962863249551
H           8.74947896743430  -17.54007160198165   -2.28128844684500
H           9.55675924194130  -18.42697098574292   -3.57769157487004
H           7.83280193332216  -18.65197256237476   -3.29414307101494
H           3.96084463004116  -21.51766977321538   -3.58952916483998
