80
 SCF done       -173.734081782450          0.000572081431
C          -9.05687080703153   -5.57583353708039   -4.37658397909572
C          -8.26337821296427   -4.62343172442700   -5.01002536841770
C          -6.84622417358311   -4.52330696279282   -4.75076872724323
N          -6.10879660276697   -3.60122801205555   -5.39471933211031
C          -6.69617676696679   -2.80343199867079   -6.24774459621626
C          -8.11008700129778   -2.90334055108341   -6.50740907993237
N          -8.84761044184142   -3.78754914615769   -5.89597887589995
C          -8.70966522958941   -2.02354998589560   -7.44672712587490
N          -9.15535369627766   -1.29794155835303   -8.21176577831291
C          -5.92567358892741   -1.82372455906522   -6.92372240151479
N          -5.33576497099267   -1.02014443410636   -7.48734513605105
C          -6.20007613174076   -5.41026569960965   -3.86323716738323
C          -7.01533860392692   -6.35565099039136   -3.21922263586053
C          -8.44071076324905   -6.43157986987521   -3.47489474517383
N          -9.02198219520532   -7.39165068191265   -2.74190969764442
S          -7.91025761146883   -8.09166555937384   -1.83418338604898
N          -6.63191634288548   -7.24896532608299   -2.30082763686023
C          -4.78494181901402   -5.37347644855988   -3.63914850781784
C          -3.92695689970750   -4.17873820647171   -3.61064066091591
N          -2.67850040273349   -4.42946425391637   -3.35629865245657
C          -2.58985942124168   -5.78228185216901   -3.21414866819242
C          -3.92209797674326   -6.40475758524594   -3.36410769019915
C          -3.78914347579829   -7.84128176754111   -3.35744849281171
S          -4.91714912020272   -8.93946862785302   -3.83363273071903
C          -2.40030647299161   -8.07179485832530   -3.08322335169666
C          -1.67624729233849   -6.78635640044113   -3.04351828031195
N          -0.33207315127525   -6.99720733983731   -2.92876602336473
C          -0.17572055988895   -8.28560595282572   -2.92827265258765
C          -1.42839196297285   -9.04632918703147   -3.01272348228564
C          -1.55034323870222  -10.45611633904080   -3.00536543389181
S          -0.33111372863338  -11.48925914397567   -3.67676075434142
C          -1.31547070602509  -12.89718826689367   -3.44789473314865
C          -2.50663902956052  -12.58031458421947   -2.78291661038016
C          -2.64035176893066  -11.19291335631053   -2.52432564196976
O          -3.59546818647055  -10.53939499561679   -1.86117632641231
C          -4.69790876996744  -11.23743501630616   -1.32299351455762
C          -3.41223738184382  -13.57230376873700   -2.36718142838372
N          -4.13146796005490  -14.38775538404006   -1.99866600563842
C          -0.87532667734717  -14.13156767163612   -3.98890562883161
C          -1.69472992921270  -15.17347585206379   -4.28203185976458
C          -1.28714178368754  -16.37678615337404   -4.90629435788194
C           0.07016390037714  -16.89688107913493   -5.12854100119441
N           0.11298535735055  -18.03936550128029   -5.74543568319245
C          -1.18840147335161  -18.37292701909512   -6.00127122338152
C          -2.09307196339382  -17.34004436778226   -5.47607960285245
C          -3.45968070257237  -17.68501904123728   -5.75262320264573
S          -4.80481167629798  -16.90357279843726   -5.21987097515227
C          -3.37131899186009  -18.91343495752250   -6.50359154866670
C          -1.95544076696547  -19.33739501796634   -6.59812872502768
N          -1.85833567810718  -20.52912943100554   -7.24913236866948
C          -3.07588284463649  -20.87533192128152   -7.54231055882297
C          -4.09492421740706  -19.90127724583996   -7.12332973808937
C          -5.50224090066485  -19.97798871747202   -7.39051008946783
C          -6.20293379930325  -21.20287578910452   -7.39745041721589
C          -7.62861665575162  -21.24908025336347   -7.62324242233446
N          -8.27802208002372  -22.43315521987964   -7.59479540881558
C          -7.59650344343906  -23.51925675493666   -7.35982864824808
C          -6.17422855821366  -23.47234229982594   -7.13184180362024
N          -5.52479040990373  -22.33823165930754   -7.15112264306662
C          -5.46208353624463  -24.67403886821900   -6.88779309521974
N          -4.91907752844919  -25.66434492880166   -6.69877450415947
C          -8.26604656222874  -24.77089875760214   -7.32962413469259
N          -8.76910521679498  -25.79864744076256   -7.29781188517070
C          -8.36757533659807  -20.09512057353493   -7.86987321793218
C          -7.68417532843516  -18.88865080588178   -7.90699105387118
C          -6.25542820455427  -18.82556311663749   -7.66733124036593
N          -5.79077152617008  -17.57753139786374   -7.79238844804788
S          -7.01053236973302  -16.60305831874321   -8.14222086301469
N          -8.19187353620119  -17.67602725684001   -8.17150099576741
H         -10.11039783164032   -5.63638310905560   -4.59074897428311
H          -4.27081277879603   -3.17189714032211   -3.76164409404724
H           0.80287460500938   -8.72667186971380   -2.84536012191391
H          -5.31846374634902  -10.47317587939140   -0.85775970313016
H          -4.38065661052857  -11.96318502749382   -0.57020090362689
H          -5.26921373723553  -11.74422376745758   -2.10388699541679
H           0.17090188061230  -14.17518235769453   -4.26079573872105
H          -2.75610318546919  -15.09235436023813   -4.09254472024280
H           0.98131333464887  -16.41927335585917   -4.81330755781893
H          -3.28063881197961  -21.79035797444329   -8.06742378823170
H          -9.43067821280777  -20.15337100948229   -8.03076474580277
