102
 SCF done       -179.091506745045          0.000676095681
C           3.14220772664578  -15.21284872758158   -5.70932784229480
C           3.75383988915329  -13.96971938656286   -5.74501476099409
C           3.71553481366959  -13.06438604366576   -4.61494180064958
N           4.32702639480910  -11.88045926162465   -4.70514445131871
C           4.95065593371106  -11.54998408312726   -5.81658139541868
C           4.98169739419004  -12.44512031169154   -6.93514377622323
N           4.39807129998791  -13.61183650039313   -6.88021564677992
C           5.65695497497702  -12.05464126457350   -8.12030793113633
N           6.21148501287823  -11.69351131221906   -9.05534295095474
C           5.58929387488394  -10.29122305406117   -5.88483679079389
N           6.11313947459491   -9.27320157405626   -5.95581367008832
C           3.03775642893709  -13.39980828767433   -3.40430604307652
C           2.42154835674078  -14.68175108029040   -3.39551134525177
C           2.48076849028275  -15.56900713097851   -4.53982157283450
N           1.83751315289739  -16.71995609429587   -4.31726806931753
S           1.22652594786306  -16.69366216489598   -2.83587701425519
N           1.73696845589309  -15.23273125286055   -2.39383214600868
C           2.97070334192848  -12.52411209313641   -2.29437937939927
C           2.30024793808626  -12.77059285690255   -1.09968004412764
C           2.44605363235225  -11.66615291298706   -0.25905700587931
C           3.21205512563006  -10.68839956433208   -0.88108615167837
C           3.60969582016207  -11.15629197601058   -2.22886593766578
C           3.34467823991037   -9.57225465656554   -0.04078630636247
C           2.66133222423578   -9.80642495959290    1.13652080036095
C           2.03147926664940  -11.18406650113516    1.08435649193138
C           2.50882311511217   -8.91958805055888    2.24956225003262
C           1.72324490467267   -9.27279748323494    3.33286629627415
C           1.52141253891117   -8.38085192628609    4.39976918800268
C           0.75917205166088   -8.47883256406543    5.55960661659379
C          -0.06428995353143   -9.62089821920748    6.05066853429723
C          -1.32979359826118   -9.80349292819790    5.19022171264882
N          -2.25405764403181   -8.70926582902210    5.43987322203005
C           0.72882207623562  -10.93671296883269    6.12886574834436
N          -0.03401030571790  -11.92250669901976    6.87745279705849
C           0.85642346437050   -7.20464401126778    6.22694738460506
C           0.24879350582999   -6.73201682562153    7.33163182983370
C           0.42993119885661   -5.32770210303696    7.78432590464977
C           1.43052668790295   -4.53917500549942    6.98968708350352
C           2.03890289904474   -5.03077732451204    5.89633275647394
C           1.75826857560689   -6.34507233421402    5.44928742123923
C           2.15286754375658   -7.06655163510054    4.34408586834534
C           2.98544309472946   -6.74126838982221    3.24704517885255
C           3.15497058994126   -7.63409038854187    2.24325149902138
C           0.76479036218043   -5.21078228293807    9.24641906596033
C           1.35383692768260   -6.17638863367677    9.96535006009950
C           1.68888382363751   -6.07782597410897   11.35130044854301
C           1.47122301252231   -5.03181445708323   12.21755738574890
C           1.94826258328031   -5.39184839586784   13.49228492842150
C           2.47757312950947   -6.67355848760217   13.46045916233919
C           2.35932998213121   -7.21818192899243   12.08298216973485
C           2.94071093940878   -7.03264713840481   14.73124228002456
C           2.71538374777087   -5.98067496321521   15.61011183568969
C           2.05943635200522   -4.84324183600892   14.86280411880407
C           3.03905795168422   -5.96427966780740   16.99061637258055
C           2.78194938920446   -4.84175400707046   17.83188261379048
C           3.11685337742865   -4.84869991497019   19.24088676299721
N           2.85501173545710   -3.76416939545124   20.00672733697969
C           2.30061694707481   -2.71921354641739   19.45606856686621
C           1.97005596921869   -2.70837357666820   18.06047145712658
N           2.21581734408388   -3.75324040454457   17.30130652583161
C           1.37103803153760   -1.57157284261665   17.47080880338368
N           0.88283338113190   -0.64415650107601   17.00572061506944
C           2.01954652564988   -1.57491183348329   20.24666096979860
N           1.77084023229595   -0.62960900386691   20.84350880025697
C           3.70629953334367   -5.94634637775888   19.84841998824086
C           3.96892589154772   -7.05412983711814   19.05175985570953
C           3.64397226150938   -7.07426532883677   17.63946194698780
N           3.98446343039190   -8.23803390200995   17.08422173133048
S           4.63569788756836   -9.19207916158650   18.20213110763874
N           4.52878698717287   -8.20051150822170   19.45414421016013
H           3.18299147865961  -15.86966249530079   -6.56053915544054
H           1.75838233138266  -13.67091337639862   -0.88118222443463
H           4.69145025111728  -11.21286428418604   -2.35300360384481
H           3.24356245452796  -10.50356279321079   -3.02169688696688
H           3.88722344755857   -8.68076816914215   -0.29533021165890
H           0.94533250163519  -11.13388922587290    1.17669094772384
H           2.40659274808998  -11.82598004268705    1.88341986157734
H           1.23319832247055  -10.23286481727906    3.34923916161248
H          -0.40019565871663   -9.38895796211522    7.06758370099937
H          -1.74884558969693  -10.79550553012391    5.41902403790141
H          -1.05764318985786   -9.77356019661812    4.13313356154481
H          -2.65722301914109   -8.79691601984264    6.36716013696639
H          -3.01522745295277   -8.72831380003575    4.77112101150268
H           1.71999719182958  -10.72475812483450    6.56484902460826
H           0.88397643714314  -11.34251978871634    5.12818314130909
H          -0.12930417981465  -11.63549619865451    7.84633895956204
H           0.43708645496604  -12.82010510222404    6.86678099185776
H          -0.43520722945444   -7.33460224910391    7.91313375783810
H          -0.54994328939204   -4.83725579913007    7.64635051940272
H           1.63057839367660   -3.53896436606564    7.34199966342755
H           2.74089453665664   -4.42639626601214    5.34021907293239
H           3.47138235878960   -5.77701906738676    3.21821179786318
H           3.78665762630937   -7.38293722926866    1.40696430512810
H           0.53968526726735   -4.25635379142119    9.69915100808077
H           1.59881066505181   -7.11495793861031    9.48276351189044
H           1.01086300475039   -4.09241915224346   11.97348837400041
H           1.75612893947804   -8.12706607691041   12.04291856895517
H           3.33044953825998   -7.45181582606469   11.64221849431483
H           3.39692753632479   -7.96574375835800   15.00165406421270
H           2.66340420883962   -3.93653039670426   14.90251515449625
H           1.09046388463126   -4.58610356742406   15.29099393091869
H           3.94672833715327   -5.93088794326009   20.89705965043173
