110
 SCF done       -199.338879150697          0.000846546896
C          -1.37196274980232   -7.55843652452079   -2.12641534457754
C          -2.50613423791773   -8.12511197165796   -2.69404500620075
C          -3.83596854103754   -7.74323313133204   -2.27054097400737
N          -4.91169735276934   -8.25148616835407   -2.90422453961406
C          -4.73183120409145   -9.13184552762482   -3.85117607447569
C          -3.40729183152433   -9.56539596664307   -4.22423178077773
N          -2.34724790923318   -9.05171671298328   -3.66568430432918
C          -3.25686770609958  -10.55963675848801   -5.22513252190076
N          -3.17899945757037  -11.36766184378514   -6.03285067174389
C          -5.85756634514970   -9.66407518853084   -4.52877945705364
N          -6.73873331203690  -10.11821178572704   -5.10265719311949
C          -4.03889578765386   -6.80863797389127   -1.24108880293142
C          -2.88508544880591   -6.28910348400076   -0.63807963144439
C          -1.55801868313117   -6.64022450324192   -1.10230128668483
N          -0.60676694613209   -5.98802601372559   -0.41757602105332
S          -1.30569206725293   -5.06582040584676    0.68261273336208
N          -2.83394336644585   -5.41964615847492    0.38012265992262
C          -5.38682591693835   -6.41496006887759   -0.82134213357492
C          -5.71985257704931   -5.03561727149707   -0.64139286669277
C          -6.95399240619058   -4.69832472818687   -0.13542919942512
C          -7.91447649463350   -5.68158145000388    0.15242315921795
C          -7.59395924616327   -7.05138775488209   -0.06731767149342
C          -6.31661457598217   -7.38925964196522   -0.54709996186984
N          -8.49089535429166   -8.02112141319330    0.20600301516031
C          -9.65322174747308   -7.64602945873401    0.66594934946351
C          -9.97577176357054   -6.28713826731403    0.87294107831349
N          -9.12805649648952   -5.32617013429904    0.62620625645049
C          -4.76452188079809   -3.99016809609369   -0.97533716478182
C          -3.98215479722639   -4.00638801359400   -2.06417843380137
C          -2.87828447121317   -3.11627345383214   -2.34712891617737
C          -2.29679930949238   -3.13626076957780   -3.59424775142734
C          -1.15284021944241   -2.35909731053116   -3.86068362099100
C          -0.39196345815265   -2.21402490314583   -5.01475919937625
C          -0.67765599878013   -2.85078993382959   -6.33112607303410
C          -1.35088359575669   -1.85802500324619   -7.30685668772710
N          -0.47318937146670   -0.74451756400508   -7.62750372206647
C           0.56042062669382   -3.50087647402028   -6.97713303086359
N           0.14815114136256   -4.70178990258386   -7.68469062736227
C           0.69148288857467   -1.31627979987629   -4.68619704375575
C           1.71860896978180   -0.84588985362522   -5.42105626325672
C           2.70452859580116    0.11661843179574   -4.85635821239553
C           2.50243821967527    0.44903314543349   -3.41470189537334
C           1.48228870322022   -0.04327869843420   -2.68783225754997
C           0.54565079424479   -0.92297015573016   -3.27899517001938
C          -0.58089654066167   -1.55841324965556   -2.78942688802433
C          -1.19904483496213   -1.55120100052713   -1.51969708520103
C          -2.31358168918537   -2.29958797162414   -1.31387570574575
C           2.65203081949863    1.35604724130478   -5.73165972619071
C           1.85206944630980    2.38164441351567   -5.46909323366571
C           1.79856624033413    3.59555150251582   -6.28563166223130
C           1.82882285952212    4.88709909023372   -5.66073511254649
C           1.76797396292437    6.01742454592604   -6.45404950839087
C           1.69367420192659    5.92133994606751   -7.85129750143761
C           1.68422410127584    4.63718079940744   -8.46591020864905
C           1.73829810565311    3.49070966028862   -7.65301278227529
N           1.62032822860916    4.51349915094887   -9.80815876634601
C           1.57161228084901    5.61746553728960  -10.50423203712879
C           1.58149866269419    6.89201427739400   -9.89592194149077
N           1.63952811226474    7.04393064153803   -8.60173962956963
C           1.95418396501165    4.96182864599275   -4.22482486639459
C           2.21182282893485    6.06767389378656   -3.49536575894977
C           2.33030989191758    6.07230167204150   -2.06846122939284
C           2.66565763810035    7.27982522667604   -1.40775690095421
C           2.80402097345270    7.35633024027803    0.02750157465789
N           3.13920566240437    8.52679212048450    0.61617875803634
C           3.33155549230402    9.57469047208126   -0.13685875042946
C           3.18548633498889    9.50207852881852   -1.56684844640108
N           2.86218519287155    8.37881576949299   -2.15622050618079
C           3.39497419954286   10.66022180777745   -2.35529421793941
N           3.57044817997950   11.61547840768150   -2.96302966365123
C           3.69111924639819   10.80934031293195    0.46292906220718
N           3.98811140251299   11.82211217083050    0.90713846889531
C           2.60340836859127    6.24345074261225    0.83382326276764
C           2.27134096419128    5.04871693434275    0.20821945550191
C           2.13692877051983    4.94992508656863   -1.23362546893041
N           1.81846023948187    3.70515760124858   -1.60472776202473
S           1.70084272706209    2.77890406494532   -0.29770499479043
N           2.04337146215665    3.87517096658871    0.81206234198919
H          -0.39106417652636   -7.83586456592577   -2.47242849264730
H          -7.22184592426392   -3.66458786456698    0.02261840356924
H          -6.07971632088311   -8.43516839129254   -0.65960053349807
H         -10.36671774326164   -8.42993098577320    0.88133558998854
H         -10.94784875354079   -5.99347235374828    1.24614286828014
H          -4.72164138376222   -3.16592236368382   -0.27762983327979
H          -4.14160864327251   -4.78130661778181   -2.80550295317103
H          -2.71606942696913   -3.75915609880015   -4.37188603053749
H          -1.39481414712295   -3.66035412402365   -6.16257400590173
H          -2.30965487122662   -1.54027090903674   -6.86566339434924
H          -1.57086047858242   -2.38824408278769   -8.23723936739610
H          -0.41078629810537   -0.10987645784933   -6.83822339794659
H          -0.84181646011004   -0.22208588973006   -8.41419136351184
H           1.25925247944602   -3.80718234761119   -6.19428048657036
H           1.05589892118538   -2.76284919151956   -7.62446801189455
H          -0.43231770514005   -4.46223567046750   -8.48142281198118
H           0.95433050102652   -5.20837336628096   -8.03190826516964
H           1.83810699539427   -1.10482442341505   -6.46157865111190
H           3.70870142554983   -0.31564268738125   -4.97571910593896
H           3.21893611184902    1.13198612269386   -2.98423842730847
H           1.36674392588625    0.22300330859874   -1.64661721067735
H          -0.77619915157132   -0.95622384245952   -0.72299102905572
H          -2.77977146792354   -2.30995078497720   -0.34091188516803
H           3.29991577384918    1.36476187240651   -6.59601574009535
H           1.21651024586202    2.34426650491766   -4.59430069492605
H           1.77432708439825    7.00635969078247   -6.02505227001900
H           1.70878032168277    2.52486942277854   -8.13404547277495
H           1.52278548182506    5.51136846557709  -11.57971236730851
H           1.54079377554667    7.79509433616071  -10.48995406038857
H           1.85827034323339    4.03380101050077   -3.68340401939065
H           2.36587046346925    7.03184521046706   -3.95715725935405
H           2.70722429299937    6.31431648688717    1.90282097148501
