94
 SCF done       -164.973233819824          0.000360344443
C           9.86655106682769  -11.35149858844135   -7.57767645192769
S           8.31728628922068  -11.09506903910659   -6.86993159153978
C           8.87635916012874  -11.49297234346168   -5.26231896778066
C          10.22520979574378  -11.80888381308407   -5.31260840404253
C          10.77252456299479  -11.72422733582703   -6.63456810789898
S          12.45839695634148  -12.13859083071883   -6.58879105251896
C          12.26979619244373  -12.37863861327139   -4.85166554437079
N          11.11332411044934  -12.18062720033741   -4.35431840762137
C           8.04781147294708  -11.48334253464215   -4.11742866430825
C           6.72740245772543  -11.17314133644811   -4.13475765186572
C           5.88377583378679  -11.16422434787633   -2.99911664840693
C           6.23807622946652  -11.45922530028041   -1.60412351773095
N           5.24386003448436  -11.38509358336956   -0.76904984355621
C           4.15735200969988  -11.03658482945655   -1.52277179103440
C           4.53388871526918  -10.88125499900496   -2.92904561821725
C           3.38186842784851  -10.53671497511741   -3.71744710470726
S           3.36267100575354  -10.32907991161784   -5.35269761111639
C           2.29534634502282  -10.47173911829048   -2.76586013817542
C           2.81093638723200  -10.79882214014267   -1.42335003934835
N           1.80532349073549  -10.79861561010168   -0.50296042036987
C           0.72426337784820  -10.53366305290203   -1.17602588544723
C           0.93371526449301  -10.31182517253936   -2.60973318086919
C          -0.11248582821311   -9.97630419179716   -3.53590251496846
C          -1.42077409984436  -10.33020571397292   -3.26575314706975
C          -2.43506845379536  -10.01814758868512   -4.18625946677253
C          -3.80439448844015  -10.27507981062315   -4.15749073269616
C          -4.54168361838368  -10.96562872721820   -3.06064319180521
C          -5.65878079555858  -10.08073093406709   -2.48458953854038
N          -5.13542340940615   -8.75300543964662   -2.21445247359812
C          -5.08454619216843  -12.33024142089347   -3.52336985689988
N          -3.96703817289492  -13.23001687783606   -3.73767392548944
C          -4.35170145928792   -9.75191962863754   -5.38558972237456
C          -5.60092100376894   -9.74632446644812   -5.89223112543908
C          -5.89642450000508   -9.18485330870710   -7.23671773078978
C          -4.74742390780983   -8.49379367648903   -7.89817762758256
C          -3.50085461528687   -8.51270437695050   -7.38738488056050
C          -3.24851240159339   -9.14294415067550   -6.14813025904306
C          -2.09135917935328   -9.31671553786859   -5.41256859987233
C          -0.74821731562364   -8.95149492813260   -5.65316103166572
C           0.20490555714010   -9.27267500781788   -4.74130345541757
C          -6.26627008564413  -10.32472710864646   -8.15849486301066
C          -7.34568005119314  -10.31884785613778   -8.94764094011776
C          -7.68398247846044  -11.35230195687235   -9.87575886646434
C          -7.00181121413122  -12.62888017703600  -10.10574505004390
N          -7.54309741686411  -13.37002695442396  -11.03036917800619
C          -8.61342424398904  -12.65590442914782  -11.48884763298926
C          -8.72874842820385  -11.38237569282552  -10.76905570824227
C          -9.85503178341337  -10.63051024773246  -11.26726078632281
S         -10.35787256336769   -9.15101983346289  -10.74711554715797
C         -10.40873145011370  -11.46285747816990  -12.29975780908020
C          -9.62609419206671  -12.70243795399258  -12.41283818562534
N         -10.12930158547959  -13.50619206629130  -13.39609822862218
C         -11.14236058341112  -12.86199997481270  -13.88959983974322
C         -11.39592814004504  -11.55689179746627  -13.26238800318299
C         -12.43243426276297  -10.67687518129450  -13.63545113540388
S         -12.68702949681482   -9.13899983714155  -12.83093336004216
C         -14.04515566675235   -8.72181163885016  -13.82486703200478
C         -14.28841838322818   -9.73266812445538  -14.74123818085921
C         -13.38252204714258  -10.82616278050107  -14.63077212074863
S         -13.77811822883487  -12.02145151676976  -15.81916437583469
C         -15.09228325323276  -10.96493413148717  -16.33961482311169
N         -15.22808821813473   -9.86397267163100  -15.71749737192888
C         -14.77946453981887   -7.50221340941342  -13.68754606388903
C         -14.50362577817213   -6.55507447196567  -12.79086663198813
H          10.00297859173039  -11.21153199946217   -8.63049919725593
H          13.11958436058704  -12.67941395876067   -4.27075010544017
H           8.54849147872555  -11.74926406101175   -3.19668746947494
H           6.25952498519509  -10.91394014766295   -5.07721049187721
H           7.22109850139722  -11.71515216383696   -1.24993570682930
H          -0.22031054533727  -10.45463329604916   -0.66669338295614
H          -1.66158879891257  -10.88772613619029   -2.37349631399285
H          -3.83014124211763  -11.17385192484370   -2.25571733306785
H          -6.07312110812960  -10.58303447602195   -1.59285623967820
H          -6.46948761942445   -9.97047159992601   -3.20816516504016
H          -4.37052587332554   -8.80370459546285   -1.54972384673854
H          -5.85529441946574   -8.16156581477702   -1.81481456208319
H          -5.71782989366020  -12.19194212664070   -4.41503346516000
H          -5.70551251556439  -12.75638117635749   -2.72978631470877
H          -3.36935056161651  -12.87940730551390   -4.47924310095493
H          -4.29062328813771  -14.15362468189713   -4.00057887053780
H          -6.43909878066728  -10.19296625163747   -5.37726991026782
H          -6.75615846271119   -8.50678776470749   -7.16988274568215
H          -4.96384734188962   -8.02061064035164   -8.84339748470197
H          -2.68447392032051   -8.03103141995628   -7.90554197883701
H          -0.49058592861631   -8.42068695385550   -6.55728025758160
H           1.23267666774109   -8.99617579159332   -4.90956256890720
H          -5.55381441346600  -11.13649170615220   -8.18451884723629
H          -8.03548891264105   -9.48435508949000   -8.92212373395762
H          -6.12925133424984  -12.97614952725690   -9.58092300912665
H         -11.72338763581568  -13.28520633767808  -14.69005924763567
H         -15.72447980503451  -11.27528438717074  -17.14808048875728
H         -15.60072413824631   -7.39713463751408  -14.38413633612627
H         -13.68461792341932   -6.66052324153296  -12.09792359365359
H         -15.08598133351475   -5.65359303366720  -12.72629057400160
