48
 SCF done        -88.579488228983          0.000837983380
C           0.20093080925711   -0.61731582733351    0.60317895785323
N          -0.03144229789279    0.67917144458404    0.24599981238367
C          -0.99081243081435    0.66029548887581   -0.71074718436596
N          -1.38127918847418   -0.54829128052660   -0.98321899978916
C          -0.64737549497667   -1.37581455246735   -0.17058990353564
C          -0.83217208861907   -2.79732742059453   -0.21472427905446
N          -1.74764453020747   -3.34956904415083   -1.04685887039541
C          -1.73749673044587   -4.70886066680503   -0.90650332295585
C          -0.77539115069481   -5.02421190113243    0.05431916616902
C          -0.21196695049307   -3.82763564615831    0.48448600585589
C          -2.56322082276951   -5.56397255913611   -1.61103768822334
C          -3.23457061369741   -6.41736897226182   -2.16251542185850
C          -4.04863729415634   -7.29501200903476   -2.84063868939512
C          -4.14662857810645   -8.67788249499710   -2.69101816353486
N          -3.34555476104741   -9.34153690460548   -1.73916501309259
O          -2.42361500831737   -8.71796369099758   -1.23657394358789
O          -3.61248922182423  -10.49753853790546   -1.45222841041268
C          -5.09844849494131   -9.29217368411918   -3.55380840917322
C          -5.32571476473122  -10.76093859829504   -3.65840508050709
C          -5.74531830140201   -8.36806934376760   -4.34072049243984
S          -5.16909422967012   -6.73513291722380   -4.03710290413445
C          -6.77765902191815   -8.55164323471053   -5.31306206228559
N          -7.06816791732654   -7.57901436232774   -6.22832200405856
C          -8.10125146598584   -7.97875321581049   -7.02472917747813
C          -8.48997474204773   -9.24157265213999   -6.60159062874588
C          -7.66676569453525   -9.59761235490147   -5.53315521043614
C          -8.61391641930918   -7.19315540226303   -8.05514935339142
C          -9.07886425104269   -6.52909256230791   -8.95541951869376
C          -9.62330790576897   -5.77983092536779   -9.99611053941899
N          -9.37376029586427   -4.43945006066400  -10.18504756739314
C         -10.07001085558291   -4.06435981619641  -11.28395420045170
N         -10.73713356343475   -5.05913043970089  -11.80104796382559
C         -10.47725030955592   -6.13288887899879  -11.02259039858917
H           0.91795025122752   -0.89210354512483    1.34702842028084
H           0.42813808042056    1.48910154798633    0.62846202617417
H          -1.37216402262051    1.54596708478726   -1.17809351797380
H          -2.32923784502256   -2.80764709026930   -1.66526973954499
H          -0.53709990881184   -6.01676788081460    0.38000018930458
H           0.55924253861327   -3.71251295458218    1.21967441330343
H          -4.44757286904377  -11.30759272560747   -3.32723782218539
H          -5.55780916695998  -11.02978540989172   -4.68630899447786
H          -6.15573927094935  -11.06157202185831   -3.01949142289517
H          -6.58194271579861   -6.70073536129961   -6.30719333215435
H          -9.28330237176283   -9.82491077087438   -7.02407423177301
H          -7.73907966430214  -10.50235955803925   -4.96650719952522
H          -8.78477244687640   -3.86568083778363   -9.60392354517320
H         -10.06302444208257   -3.06435125851445  -11.66960832745987
H         -10.90460155964512   -7.09263619468052  -11.22999545694097
