102
 SCF done       -171.705470761056          0.000819659985
C          -9.66898582913547    8.98947400239249   -0.84624499553443
C          -9.74335672655124    7.73428300110056   -0.28311718791593
C          -8.54593844058084    7.38497503134785    0.43503148626118
N          -8.39367762239542    6.15742445853604    0.96934642466855
C          -9.41467472782807    5.35545691490740    0.86181133202601
C         -10.63662976384126    5.72006526930493    0.22373165761921
C         -11.77005883902693    4.74434959810739    0.15194711479076
C         -11.47843930165938    3.65215886679426   -0.87865627886969
N         -10.78773397000708    6.87888893897863   -0.35962127137208
C          -7.59309254961344    8.40325738987571    0.42485935945258
S          -8.17355562397018    9.74048507182038   -0.51604179937029
C          -6.32259135399680    8.41558700558234    1.04727402311560
C          -5.17021288564022    9.21048889749263    0.61539535771335
N          -4.08308683659316    8.98429506783916    1.29346489622189
C          -4.42499188090949    8.05303179335055    2.23072474202965
C          -5.83626528399416    7.68520682664810    2.11105465754489
C          -6.19272177509744    6.77189147263446    3.16723396929463
S          -7.74193189198381    6.38965548406414    3.58060113058033
C          -4.95591715047840    6.47346738671486    3.83975377559060
C          -3.89317945697294    7.31494971294580    3.25923615403963
N          -2.70284215011743    7.09938356223227    3.88164148844970
C          -2.93919611701737    6.16609407674545    4.75779978316462
C          -4.32567893590988    5.69356048434630    4.79901272815572
C          -4.78201024445435    4.63823615095036    5.65862272249714
C          -6.13232086567709    4.45437525153168    5.90985538618554
C          -6.56149661868084    3.42735151107495    6.76498405830295
C          -7.83368785921569    3.04333065463662    7.19443676495760
C          -9.16140034619679    3.63643534710352    6.89581448065645
C          -9.32393795326693    5.02482827628638    7.56839768835250
N          -8.40190300518542    6.00289054559187    7.04446431481848
C          -9.47111147063896    3.70695399899932    5.38944489632301
N         -10.82465749032035    4.19850934338813    5.19681558734104
C          -7.65146935331719    1.90309223999161    8.06519364471443
C          -8.54138048638559    1.14288592279943    8.73086177526787
C          -8.11519103097643   -0.03097939207986    9.54526563596284
C          -6.63887510966017   -0.24222800471144    9.60357096085256
C          -5.75955132880774    0.53422343118912    8.94305057764998
C          -6.21650387654341    1.60981792442257    8.14490681745669
C          -5.56774524446891    2.54263816185568    7.35934240462300
C          -4.19911124584801    2.73726897843100    7.07117164513008
C          -3.82335096276455    3.75206610736616    6.25242091614128
C          -8.70028160362060    0.08579816417226   10.93311406218572
C          -9.94985379196466   -0.27906138713580   11.23491134163041
C         -10.53831729437363   -0.18648403757553   12.53712311101725
C         -11.97479955508114   -0.33159449046592   12.77231368695153
N         -12.33367678397978   -0.24028487454438   14.02096394294872
C         -11.17495006274899   -0.04325052201372   14.71104326846869
C         -10.01978914118490    0.01412341405511   13.79759098396302
C          -8.80595561657544    0.16425767414542   14.56878178647192
S          -7.25239036310687    0.23581900316731   14.02017789079944
C          -9.24416475965837    0.19416418425688   15.93579256726412
C         -10.70783005338160    0.07129636664067   15.99387770924191
N         -11.14597965879836    0.07158375285296   17.28727768154420
C         -10.07719818538772    0.16537714770956   18.01886906691575
C          -8.82336102810686    0.23709672394286   17.25141913468379
C          -7.54402144891486    0.31298274158661   17.83868507832344
C          -7.23101944926985    0.27666718793043   19.20551623994148
C          -5.81789074726857    0.35107241567280   19.44928054325542
N          -5.32262659260076    0.32113952324758   20.70885261870827
C          -6.20185786111760    0.22500175619991   21.66071844784373
C          -7.61035380974751    0.15689065858593   21.43259472373909
C          -8.54419443650413    0.05609985651753   22.59910145695281
C         -10.01147850472901    0.04370204072827   22.19422594663949
N          -8.10833198236675    0.18114219189003   20.22241742291620
C          -5.08694348733087    0.45131127089316   18.28279711987235
S          -6.08331096588696    0.44989137002436   16.90613570116217
H         -10.41808998344106    9.49750699087846   -1.41878396860932
H          -9.29234394008096    4.36805139612262    1.28684977810350
H         -12.67372940264565    5.28423982712718   -0.13170376275672
H         -11.92005448251412    4.28931544731758    1.13379055351987
H         -11.34505445147301    4.09361519782969   -1.86342943186604
H         -12.30742066620825    2.95009608904003   -0.92229270708506
H         -10.57406828201822    3.10608876814294   -0.61874232536422
H          -5.18379469230716    9.91624559796930   -0.19717167205757
H          -2.14507043807174    5.83502760804172    5.40366438652075
H          -6.84766479190369    5.12753086436876    5.47405823923136
H          -9.93069351824294    3.00004644912277    7.34826920868007
H          -9.12937804996758    4.90510773607210    8.63818285037661
H         -10.37763781779704    5.30842231044102    7.42932840853891
H          -8.31629933673237    6.79956308773813    7.66162500346432
H          -8.70073810443614    6.32844342950980    6.13211534600478
H          -9.30410240341933    2.70539220835505    4.95776154397037
H          -8.79130840874164    4.39865586550237    4.89730242382387
H         -11.50760929885154    3.48743546880226    5.43607043002351
H         -10.97196633904583    4.47194526398745    4.23323160834587
H          -9.60404865826277    1.34395673655444    8.70897682520721
H          -8.57332773138425   -0.91851842176689    9.07744319007649
H          -6.30687733927396   -1.05796404237242   10.22711863454222
H          -4.69826197047959    0.34642699921816    9.01269141904954
H          -3.46468246543912    2.07170021204980    7.50050959681758
H          -2.77925851464799    3.88197187778945    6.01526080589598
H          -8.05024359526075    0.50440092080430   11.68648292407413
H         -10.60413449399861   -0.66988967383282   10.46272994979236
H         -12.70971891546009   -0.49229379460844   12.00175700922847
H         -10.12369926019269    0.19067316022704   19.09190682413283
H          -5.81582925474688    0.19865730228106   22.67157674576294
H          -8.34582367537541    0.89837155699013   23.26912901899807
H          -8.30034863493428   -0.85564946784181   23.15353593909868
H         -10.26247575943913    0.95468358070474   21.65760198535114
H         -10.64389544489492   -0.02833271752816   23.07530748877205
H         -10.21748791337457   -0.80313781374737   21.54544928713252
H          -4.02171117355236    0.51861508340745   18.18895608508478
