118
 SCF done       -217.406932251520          0.000539570514
C         -12.41886625460612  -11.20275590604861   -4.16156009660456
S         -13.60059300006373  -12.14639462256112   -4.95914522668342
C         -12.98228069553534  -11.74830261777378   -6.49623788016301
C         -11.89129471151018  -10.91478524224901   -6.40884558170011
C         -11.56661799492690  -10.58227792471579   -5.04398272427831
C         -10.43261337654635   -9.74934372356131   -4.77156974951269
C          -9.69117462278352   -9.28440507367208   -5.85139065252575
C         -10.03114932632112   -9.62521612440600   -7.18793628401346
C         -11.09862134359828  -10.41425431527133   -7.46954097827445
O          -8.64877017243155   -8.43993447616537   -5.72558679584276
C         -10.00370628907898   -9.39981000116153   -3.43804011781246
C         -10.79212620542320   -9.11207668647758   -2.38790965409920
C         -10.29744439017456   -8.73185722048878   -1.09028622696963
C          -9.15056534895391   -7.94259418429921   -0.87143718996312
C          -8.24580079163354   -7.25558614344547   -1.82493726767536
O          -8.27021211679614   -7.24273953730822   -3.03669790359970
N          -7.31194313690932   -6.56892510730908   -1.05345322213417
C          -7.53625291275094   -6.73863978573963    0.31920474441723
O          -6.85895520369914   -6.26137181722956    1.19045477425664
C          -8.73775031819389   -7.59141197911828    0.41979536287209
C          -9.41394551725140   -7.97575180608885    1.56107675464600
C         -10.55852654068833   -8.73714368302770    1.36094194521568
C         -10.99160343196738   -9.10593146766280    0.08674683930456
C         -12.19023527489488   -9.95429657503343    0.09596367569858
O         -12.75590707645848  -10.46924591148308   -0.82567553383747
S         -12.74718181199576  -10.18119752711743    1.79610795648658
C         -11.39879634667005   -9.21527683154823    2.47395914634951
O         -11.24364113051654   -9.01791420767406    3.64165495197591
C          -6.23405655335994   -5.80232134709821   -1.49363208024339
C          -5.94749659086877   -5.50755617909148   -2.76612339817076
C          -4.81005311725602   -4.73284758610110   -3.21369307628755
C          -4.70834154109367   -4.43771913360705   -4.55658934835596
C          -3.60301404962275   -3.71520536830608   -5.04266648268140
C          -3.26781879224949   -3.31667223262806   -6.33312957961862
C          -4.08013906465817   -3.52225124561053   -7.56348175385847
C          -4.36196304858625   -2.19294546218749   -8.29351144551132
N          -5.65308901464209   -2.27149565027926   -8.94837906258603
C          -3.41692979275945   -4.55256594120516   -8.49713019775744
N          -3.45342370078236   -5.85637997434270   -7.86470614956624
C          -1.98031231887464   -2.66479000254603   -6.24664722862554
C          -1.17287069207772   -2.13903205100485   -7.18771868505751
C           0.14695921172656   -1.54254098548135   -6.84654210835452
C           0.47369728483608   -1.53613275002274   -5.38597811735675
C          -0.34487876519739   -2.06311699518915   -4.45551994125330
C          -1.56909283363990   -2.65826872816862   -4.83573017001818
C          -2.56449098628470   -3.29855655005903   -4.11540160962650
C          -2.70177656779021   -3.59612678934366   -2.74288445956269
C          -3.79067237922191   -4.28794262779952   -2.31278564845960
C           0.22725426180727   -0.13824069004914   -7.40039730346644
C          -0.74892292952128    0.74486327509936   -7.22500412695314
C          -0.69511537243348    2.11411064817468   -7.71686246573171
C          -0.96782603946177    3.18201255262818   -6.86398012432698
C          -1.36680416070296    3.15239675372029   -5.43940507470955
O          -1.53782326111226    2.19001534312814   -4.73024549078778
N          -1.51222912650109    4.48794901686302   -5.06468179979330
C          -1.22126833374816    5.37159922478302   -6.11359591253314
O          -1.25548806466668    6.57215139542036   -6.03115057708195
C          -0.87599327419479    4.51836727542357   -7.27030832642134
C          -0.51097289956991    4.86368764950919   -8.55686393584892
C          -0.27771740151335    3.80871240089220   -9.43357091008301
C          -0.37510499606083    2.46651057214519   -9.04143795397311
C          -0.21422155779228    1.51162807261608  -10.14679417197980
O          -0.34751296249016    0.32027786541216  -10.14163188178825
S           0.18640640512596    2.41731917432281  -11.65097318407929
C           0.06850360662283    4.02015494108283  -10.84645772516300
O           0.24742217888559    5.05708525627028  -11.41275747688648
C          -1.90264999805891    4.98442893140178   -3.82271063545620
C          -2.12972544258752    4.24915951025500   -2.72733170090348
C          -2.55666026647223    4.79241097187514   -1.47000363824012
S          -3.69080458719717    3.82828030264337   -0.57068960690678
C          -3.94479068240105    5.05623151417699    0.57664846613507
C          -3.17134277576749    6.16716026547252    0.32579134716224
C          -2.33578470678476    6.01411997360766   -0.83539910916035
C          -1.38380654647573    7.03069461992964   -1.14903713228230
C          -1.38573693313727    8.18018445889363   -0.37863337992894
C          -2.28027423171880    8.35048345542802    0.71131289286149
C          -3.13771238314327    7.36649005313829    1.07722454218778
O          -0.50327214050196    9.19149768647396   -0.55649137919118
C          -0.33244445669617    6.80162655438762   -2.14421059363465
C           0.09400856037224    7.67896668054286   -3.04675595733937
H         -12.42406978461481  -11.18404215366463   -3.09138608794237
H         -13.43458658512036  -12.14824838262516   -7.38128246222408
H          -9.40637716810427   -9.21663019442564   -7.96628978420333
H         -11.35576005598482  -10.66839757812757   -8.48629865006627
H          -8.54413037459230   -8.11536588666537   -4.81647699125275
H          -8.93023526980907   -9.37848374790144   -3.29438718511189
H         -11.86441379007257   -9.17141348170026   -2.48650818273554
H          -9.08600587214205   -7.69534441238869    2.54870936321573
H          -5.64486513952340   -5.45907019368324   -0.65435697853539
H          -6.59724613124835   -5.86442299256918   -3.55114149342128
H          -5.47055643722603   -4.77406972804353   -5.24335631492830
H          -5.05007936019260   -3.93379756981891   -7.27268186561205
H          -3.53386662800796   -1.96155280923812   -8.98346320117766
H          -4.41933176109320   -1.38666017536817   -7.55640381255562
H          -5.64433195628001   -2.97347147487074   -9.67985911477372
H          -5.90258947028847   -1.38318350231288   -9.36671878172665
H          -2.39784517190213   -4.21244218473932   -8.74897533105528
H          -3.99094136117154   -4.62311119655238   -9.42530280610637
H          -2.91985485823249   -5.84604762301124   -7.00183519164889
H          -3.06607503327574   -6.56780649723660   -8.47310674890499
H          -1.43793196719908   -2.10781724730126   -8.23413026223297
H           0.91548036738882   -2.13531449416378   -7.36576573613747
H           1.40939404474498   -1.07371374159164   -5.11213469956106
H          -0.07554356087325   -2.04034774834057   -3.40990629124067
H          -1.93891133200473   -3.27765632320767   -2.04804332365322
H          -3.88650928186050   -4.52132458074951   -1.26459683272619
H           1.12985935130350    0.13108517719901   -7.92895710112808
H          -1.61161749879280    0.49334902948533   -6.62242209365428
H          -0.42477549993697    5.88852080238391   -8.88031481873285
H          -1.99922363571502    6.05982858441089   -3.83194784620330
H          -2.09305513537070    3.17079213206672   -2.78693996080932
H          -4.64850267568702    4.91470053088982    1.37236167335829
H          -2.21373607712358    9.27955135690654    1.25449105196487
H          -3.78673935236267    7.47228776298147    1.93228865482503
H           0.12735739859908    8.95440025388128   -1.25363745441494
H           0.13307317624019    5.82450514601541   -2.08531178192391
H          -0.38856909754643    8.62969068655705   -3.21035484156124
H           0.90101215770787    7.44396685057669   -3.71970491168246
