104
 SCF done       -178.120985581136          0.000872753492
C          -7.71472513238418    0.06227564816236   -0.09012005747665
S          -8.45188135318484    0.79930865471362    1.26654880897997
C          -9.85013535778174    1.19552922993808    0.37426565206012
C          -9.76014569223936    0.77921351891400   -0.93344163470008
C          -8.50922393721374    0.12285045859347   -1.20963059503477
C          -8.23435325278414   -0.39603203009764   -2.51716811129405
C          -9.20069601857270   -0.20660391037626   -3.48948767372529
C         -10.43193734545265    0.44155757737351   -3.20275198941658
C         -10.71973643750508    0.91955156723255   -1.96579392172914
O          -9.03491217454783   -0.56707546302710   -4.78709125585142
C          -6.96080991127382   -1.04088719589599   -2.76214761942927
C          -6.75159585362071   -2.09775858458468   -3.57430483444769
C          -5.48041613067329   -2.70620879142768   -3.80715980976779
S          -5.39405399057617   -4.12768904265873   -4.81085833357684
C          -3.67210111307363   -4.23615457210266   -4.60489124539667
C          -3.21484698008222   -3.21261680282212   -3.80073127272282
C          -4.22490955510348   -2.35812787712540   -3.35763197226533
C          -2.92098970728892   -5.27722584602718   -5.21571895199456
C          -1.57196406292235   -5.53787016596859   -5.09988264869574
C          -1.15591648670974   -6.64993294606436   -5.83222133319833
C          -2.17480405633196   -7.26400056799584   -6.52770352745843
S          -3.68618068252481   -6.44053194674357   -6.26222653961570
C          -2.10972667788912   -8.40332520201867   -7.36983521338396
S          -0.61470364408683   -9.26981260932434   -7.59825625140529
C          -1.38109835024919  -10.40136009979501   -8.68499081097172
C          -2.71796166361249  -10.09152780689775   -8.83615454741393
C          -3.12561128336741   -8.97989232381576   -8.10092906319995
C          -0.67520435446086  -11.46687872729357   -9.29873409059305
C           0.62840429550074  -11.75845104875712   -9.07614208040179
C           1.34972869721617  -12.81358381806423   -9.69108302506931
N           2.66591437488532  -13.06147960145006   -9.35005889127785
C           3.11518527560326  -14.11403843137640  -10.08258294045376
C           4.21739518983066  -14.93030772757644  -10.32484588144676
C           3.81718116166921  -15.84082551315787  -11.30767716207374
N           2.50407402449305  -15.58476463132291  -11.65675638573609
C           2.05238953873665  -14.53873590813449  -10.91665294823783
C           0.94789976084149  -13.72815871917106  -10.67005921004871
C           4.53411481791081  -16.89379745562920  -11.93354138801075
C           5.79295801168408  -17.27936956084752  -11.61408957516299
C           6.50340888859400  -18.33274236687425  -12.24896370321475
S           8.06214558726308  -18.81109107372605  -11.63086841843874
C           8.22891743753622  -20.04615761913142  -12.84423310218035
C           7.12572954591623  -20.05942138353871  -13.67476835698115
C           6.16514151094549  -19.10745152648511  -13.34171097949527
C           9.36994808678110  -20.89046084109972  -12.89755567414651
C           9.65887483986528  -21.86850516236027  -13.82707856618634
C          10.86156961783725  -22.53012984909649  -13.58257166518714
C          11.52132815118271  -22.07746195606827  -12.46060860304970
S          10.62625627343743  -20.79364665553727  -11.69489353531451
C          12.75161807024875  -22.53413435457034  -11.92150785989636
S          13.64882415490104  -23.81351811855095  -12.68904547455269
C          14.89146358578036  -23.74528414687731  -11.46660861240682
C          14.59686651983931  -22.77143803839486  -10.53448465165866
C          13.40344860653443  -22.09669821135367  -10.78795994211320
C          15.99893289570918  -24.63162321941933  -11.56148133551753
C          17.01440452505971  -24.70057748651210  -10.67176574999305
C          18.11961456096930  -25.60020408701901  -10.75646328268924
S          18.71363962056539  -26.23966319678975   -9.24815545669116
C          19.75857217917489  -27.33124433194837  -10.02963063391539
C          19.70684789509813  -27.20494814020041  -11.39949638834420
C          18.79358853860620  -26.18178968967090  -11.83237547756775
C          18.73852064689535  -25.83522011864930  -13.21600287677073
C          19.49336068732313  -26.58341983545569  -14.10205266860383
C          20.31753176438890  -27.65384999430649  -13.66601777200712
C          20.44572910053493  -27.95056707330739  -12.34944790867282
O          19.55899828980874  -26.31525282806315  -15.42980235639813
C          18.03950420892894  -24.62794543707167  -13.66311698217830
C          17.29239654151884  -24.51429764161812  -14.75660122841004
H          -6.74426786739280   -0.37606730929963    0.02384261796097
H         -10.66332355848490    1.70611857840764    0.84962416986455
H         -11.12597154419003    0.54018905465258   -4.02217373651458
H         -11.65856293428625    1.40789855903504   -1.75592791687173
H          -8.12936476884202   -0.87564766260214   -4.92964217759072
H          -6.12483531963843   -0.64108365816796   -2.20390623269985
H          -7.58478514144888   -2.59255667831697   -4.05881946206179
H          -2.17763660871094   -3.08884880478793   -3.54684434416735
H          -4.04006080209080   -1.50718597457248   -2.72705153712051
H          -0.91035781143125   -4.94081989336400   -4.49893930917816
H          -0.14157347492217   -7.00703904607483   -5.86399522348591
H          -3.37526728643613  -10.66532616071558   -9.46529896633886
H          -4.12935076398078   -8.59195666179079   -8.09375161914502
H          -1.25270900196334  -12.07162336743167   -9.98359150558128
H           1.17917915600212  -11.14628731042653   -8.37125456862910
H           3.18235286122577  -12.53927018741494   -8.66360748941089
H           5.18549550333224  -14.88376483575452   -9.86928242048803
H           1.98329611466242  -16.11096674480758  -12.33671853049603
H          -0.01920480302439  -13.77379673124139  -11.12800896413880
H           4.00592509827470  -17.41996430163278  -12.71824776973252
H           6.31237127891738  -16.77479190725757  -10.81244343469425
H           7.02267049778748  -20.74564295062274  -14.49594965076740
H           5.24847186459978  -18.98204222139145  -13.88914738312472
H           9.01609806941679  -22.09276259930698  -14.65881847660250
H          11.25144240609454  -23.32182236055937  -14.19817739249725
H          15.22924609515327  -22.55539034565184   -9.69245591859325
H          13.01081919387128  -21.30829265010954  -10.16961277714976
H          15.99920329474295  -25.29275831883101  -12.41536645861146
H          16.96319313739630  -24.11443315439776   -9.76334650827647
H          20.35333469997108  -28.01284045121958   -9.45524210135412
H          20.86578021025298  -28.18719924911458  -14.42621670327334
H          21.10707849679427  -28.73188768235949  -12.00884595836133
H          19.05814003805183  -25.50793399317551  -15.62156030189055
H          18.19185636833591  -23.76163107637682  -13.03028371840525
H          17.03513573022511  -25.35775756918803  -15.37891386340239
H          16.84560529776503  -23.57421167783131  -15.03274677284579
