90
 SCF done       -171.599346062006          0.000833909517
C          -5.34904652314482   -1.92128168216327    1.11664027041246
C          -4.85995357693542   -3.02347746877023    0.48042082099835
C          -3.43783772628017   -2.86057425832532    0.34672619577108
C          -3.07235325844357   -1.59390758441250    0.93586160949553
O          -2.01019897982907   -1.02163560459988    1.06528723604668
N          -4.30381632332976   -1.08370320442261    1.38325285113204
C          -2.95819113661578   -3.98059629156990   -0.29200495040014
O          -3.98856611098244   -4.83366182669165   -0.56856226535857
C          -5.19981128391825   -4.29987309646964   -0.11523507817759
O          -6.23440195449538   -4.88625573177087   -0.25447233592699
C          -1.64382960961209   -4.32117341749584   -0.65590915540093
S          -1.26843914963995   -5.82083862392493   -1.45210489432058
C           0.41788430386123   -5.41459246543584   -1.48644699866050
C           0.64798537747668   -4.17235015579334   -0.90650013178158
C          -0.50334622973079   -3.55915749937900   -0.44118830600915
C           1.38258733626178   -6.29270682393959   -2.04188301375669
C           2.75187384429673   -6.11447235673837   -2.11524013734804
C           3.41937872944473   -7.17943626219422   -2.71093122957564
C           2.58005621793152   -8.20115822645262   -3.11189264420821
S           0.92359603506156   -7.82330035567927   -2.73838820292124
C           2.93141521466067   -9.42221231371231   -3.73834259561642
S           4.59543435909393   -9.82302335081054   -4.05845029699745
C           4.14673514927362  -11.35280299015152   -4.76433827102739
C           2.77256749928817  -11.50939519364194   -4.73907060781746
C           2.09731640713290  -10.43576367989046   -4.16688947216452
C           5.16425954100949  -12.21605643047134   -5.24666119959982
C           4.95289117041654  -13.41957118906226   -5.83434844720903
C           5.97626132722646  -14.28456552311686   -6.29910133576834
N           5.66324091827712  -15.48902877997442   -6.90019027683582
C           6.81748275870894  -16.12123063476200   -7.23726818979693
C           7.34344112347478  -17.27177647946884   -7.81610501394165
C           8.73547020075006  -17.13232709837817   -7.76150597534654
N           9.04785139759863  -15.92418394770976   -7.16676949839008
C           7.89344836260354  -15.28961194827391   -6.83625374488912
C           7.36804627221763  -14.14194581848732   -6.25160154607219
C           9.76208422941375  -18.01159462708150   -8.18908805899311
C           9.56170544641561  -19.22169166650382   -8.76760498692285
C          10.59261128196959  -20.11084513430515   -9.16717493771425
S          10.17177730344713  -21.65020777403128   -9.86613574139316
C          11.84488077558946  -22.09923513320985  -10.02784935500682
C          12.66428008557173  -21.08690880340529   -9.56285137047415
C          11.96799452129270  -19.98180894501587   -9.08547968253732
C          12.23160905269121  -23.35564506352225  -10.56067775831977
C          13.51164659392573  -23.86427944473586  -10.68742990824856
C          13.54855669728411  -25.14046237710649  -11.23949451858786
C          12.30097457154008  -25.64236124898311  -11.55362752968399
S          11.05436232030871  -24.49285394330766  -11.14849160250405
C          11.98175883061855  -26.89792770035753  -12.12369122576465
S          13.21672512376233  -28.06478995662140  -12.47733998225725
C          12.03903616685684  -29.19801936588480  -13.09754419580926
C          10.76404549765397  -28.66033610347322  -13.01674839965630
C          10.73253660414691  -27.38360226882056  -12.47342975760987
C          12.46906674864227  -30.45502043383603  -13.57854646335464
C          11.65387371257410  -31.40045166525029  -14.11987260864738
C          12.07317705240848  -32.66217181536798  -14.59601421592082
C          11.29477083000496  -33.64126167415221  -15.18808011653729
C          12.13233211298480  -34.76307526641762  -15.51601755729458
C          13.49379829710949  -34.43804403361037  -15.09099257833036
O          14.53133168293058  -35.05027637561160  -15.14684322017917
N          13.36421655546910  -33.15543149083169  -14.55310055928434
C          11.33339231830986  -35.69038202032428  -16.09476733639871
O          10.05823740889446  -35.25862520924586  -16.16430831841032
C           9.96049116991265  -33.96630767447539  -15.60947645221198
O           8.91327267748206  -33.37625737389943  -15.56215918998592
H          -6.35410562108896   -1.67123161565526    1.39814694069363
H          -4.38286429984062   -0.19308145446069    1.84908183020103
H           1.62752695178184   -3.73793662375674   -0.83014870989952
H          -0.54133336510733   -2.59772387729748    0.04024511681120
H           3.24721260867286   -5.23641289593914   -1.74352041500025
H           4.48459804958223   -7.22193850366926   -2.85418923021921
H           2.27490713893372  -12.38140220416902   -5.12233025865719
H           1.02810193719983  -10.38065281749459   -4.05872197984518
H           6.17760171205861  -11.86303765714758   -5.12180447470300
H           3.93844828404380  -13.77110501717799   -5.96916024780870
H           4.72758358162120  -15.82328330095660   -7.05328260397970
H           6.81244534428534  -18.10670667935706   -8.22551631296060
H           9.98330658724658  -15.59175245134928   -7.00891286865639
H           7.89992953700338  -13.30943924633648   -5.83868711688509
H          10.77497798076646  -17.66981287163317   -8.02043450500410
H           8.55129955749744  -19.56343731975848   -8.93845456263970
H          13.73709638059713  -21.15448488640710   -9.57361511904571
H          12.45287823067922  -19.10868421189132   -8.68835185873841
H          14.38804995115560  -23.32282118103395  -10.38222171624890
H          14.45243511832688  -25.69780766322136  -11.41284027548844
H           9.88693541208110  -29.18913239283479  -13.34206269970276
H           9.83575072532183  -26.80689657534756  -12.32991174373045
H          13.53231353355661  -30.64216609103605  -13.49895407440164
H          10.59505904478702  -31.21496779773032  -14.22046574853382
H          14.15128263247116  -32.65932916511305  -14.16609536450709
H          11.53308563405877  -36.66901259570320  -16.48953754158945
