69
 SCF done       -135.749073134813          0.000608618791
C           5.81138543683271    3.22409585660768   -0.48361460890972
O           5.65036554423807    1.84630935509427   -0.20456380713335
C           4.46394394661288    1.31423728556914   -0.53944065182911
C           3.34341812770692    1.90427401013354   -1.13567668341586
C           2.39600969694365    0.89494593904042   -1.24885157666423
C           1.08984642128200    0.97285041665973   -1.77762753352192
C           0.45624774012165    2.07467630508307   -2.32084930947192
C           0.59937778112110    3.46771715344443   -2.63630362197248
O           1.50386939686025    4.25170975845070   -2.49195772727260
O          -0.62285774818287    3.83976665156597   -3.21394088068437
C          -1.45456449703090    2.77638116792592   -3.25350593121693
C          -0.86415782185751    1.67669077334411   -2.72955459280681
C          -1.02188906611730    0.25564305047837   -2.40910097569496
O          -1.93757994985760   -0.51010822114666   -2.56365610759261
N           0.21058645666585   -0.08440664755765   -1.83704456749862
O           2.88171463887722   -0.26869523619741   -0.75868262651020
C           4.14052350810557   -0.03507965930170   -0.31992147810841
C           4.90649459715663   -1.06739532858672    0.27034157801912
C           4.43138171469053   -2.32988783825058    0.41113253107302
C           5.11214040331878   -3.41092263856075    1.01935154391255
S           6.74422936398417   -3.26306425032706    1.61079935705462
C           6.74415531912263   -4.92180601483660    2.13185432519559
C           7.88272163750322   -5.46221207716075    2.78721738959836
C           9.16044255870255   -4.93905297348910    2.92457381570139
C           9.89740350448810   -5.88398431281826    3.65451739680153
O          11.16930370526814   -5.86845469934085    4.05242372038693
C          11.92996655660472   -4.72844739040031    3.71124517809213
C           9.00936237914407   -6.93536782173997    3.93803888056880
C           9.16995443678673   -8.12673214419469    4.66825295145495
C           8.23789470227786   -9.06039867414185    5.06399799845341
C           6.83257957603843   -9.39375263623443    5.09009150852515
O           5.83523094086768   -8.84066725298604    4.67582529946931
N           6.80926862388129  -10.61595527735093    5.78835702012933
C           8.04889296865995  -11.01632857996895    6.19554110211853
C           8.95319524623021  -10.08835056566494    5.77295217356607
C          10.35108451033183   -9.71144273757266    5.77870946383529
O          11.33290440290359  -10.22586113061922    6.23144030109277
O          10.41238464585080   -8.49352313131535    5.09026165926461
O           7.79540013088523   -6.65537820055328    3.39635917777127
C           5.54493648412582   -5.55490585816111    1.84340358121864
C           4.62149542604890   -4.69359665592009    1.22939448418368
C           3.23772151446745   -5.13259617443194    0.84655571885923
C           2.18918696013791   -4.13191221372891    1.26124335093037
O           1.25622203927006   -3.78832102036445    0.59102543619211
C           2.89231514532596   -6.45800416078908    1.55052591880702
C           4.02380584738918   -7.45984827328116    1.35777116589330
C           5.27242338045451   -6.99641135624660    2.10286809968604
H           5.07487496725250    3.82404456876621    0.05744070916863
H           5.71945869698686    3.42252289975519   -1.55471529524448
H           6.81359987875991    3.48048714239616   -0.14669386740355
H           3.19529374216920    2.91618502408053   -1.45530926561682
H          -2.42689781535402    2.94217940994081   -3.67767061534096
H           0.41898914339544   -1.00804436088347   -1.48640297774056
H           5.89127180114167   -0.79167169478083    0.61641639038153
H           3.44119756650249   -2.54180770461421    0.03479759085460
H           9.49121598303857   -3.99954942967859    2.53213779155621
H          12.92199783087194   -4.90065237246063    4.12308639434676
H          11.50175423821216   -3.82214089506531    4.14933299782544
H          11.99829888197289   -4.60941059483772    2.62598813306436
H           5.95216168047576  -11.11135854325423    5.97913424172406
H           8.19292399385719  -11.92245787526803    6.75233085727279
H           3.17600702666438   -5.27720938961821   -0.23898907377495
H           2.32742580732882   -3.75300221125581    2.29281495063387
H           1.95859003769009   -6.84547045653786    1.14085593084887
H           2.74959250308569   -6.27781496477421    2.61831014476224
H           4.23928344521056   -7.56149558326741    0.29172613645379
H           3.72311029987591   -8.43575341605500    1.73821400299781
H           6.13616584979053   -7.59236213740949    1.80239408703629
H           5.15445610681591   -7.16602398504176    3.17636128865495
