89
 SCF done       -175.636847115846          0.000323989435
N           8.75607988568600   -6.05665077873317   -4.50218944337231
C           7.62805840703125   -5.96950577754422   -5.43095753517071
C           7.14892193004754   -4.54479988983402   -5.50442783143699
N           7.58605407558959   -3.87688987066661   -6.54370467017687
C           7.20464438024747   -2.59125273326911   -6.66105440355235
C           7.56416505185728   -1.71653792371008   -7.68994714209617
C           8.39356739810085   -1.98706211933862   -8.78760048443668
C           8.71092512454720   -1.08461239476134   -9.75764469477425
C           9.53970894151981   -1.32544073874897  -10.87112200025210
C           9.87889988022784   -0.43275671833523  -11.87336478925016
C           9.69029620230400    0.91256793455208  -12.33989168043218
O           9.06424071396893    1.84923612476318  -11.91755783632374
O          10.44468261585139    0.99499031986834  -13.52628647597276
C          11.04321122303594   -0.18765746387121  -13.77072765811525
C          10.74392051765199   -1.09477493258897  -12.81031814217714
C          10.93690717260383   -2.46724418427987  -12.33976515789219
O          11.56998058123869   -3.39524242370185  -12.77632327158091
N          10.17548312043262   -2.51556290805161  -11.16855843400775
S           6.81119092279660   -0.16017033958728   -7.42159943336166
C           6.03397384016628   -0.67401617405012   -5.96363406276721
O           5.25574871924859    0.02590199678175   -5.15673186321637
C           4.85745537255636    1.31234381060721   -5.27466364686978
C           5.09435744628773    2.24173984704144   -6.29887579789131
C           4.50359055275990    3.45750271218304   -6.03725970778570
C           4.47368784531844    4.71104719403822   -6.80862619598350
O           3.88115239246860    5.67708371425566   -6.40922603738042
O           5.13577160292652    4.72719626034453   -7.97380393713057
S           3.65202845749516    3.47673394314238   -4.53443020784523
C           4.07950593790033    1.82808508135295   -4.22499834839582
C           3.70431820370497    1.09983506562084   -3.07455801365034
C           2.97973047675837    1.59931479498341   -2.03869483737114
C           2.62756960794848    0.85711174300132   -0.89531474365239
S           3.03174530963594   -0.80955025918345   -0.65269344723778
C           2.27859446799460   -0.86166532089705    0.91247911186033
C           2.31170525327154   -2.04885743793497    1.65901439850406
C           2.87552517231966   -3.25948223715493    1.31730349909592
C           3.59099928106676   -3.95785380187221    0.28100788240860
O           3.96777611379684   -3.61270359724597   -0.82219713245618
N           3.78540696540128   -5.23434522458288    0.83101237062329
C           3.25103279617349   -5.34967046545595    2.08344228924550
C           2.67723349562971   -4.15640836324516    2.41671290554698
C           1.95376467307415   -3.41340710649002    3.43423630770628
O           1.55249280323274   -3.70516188959038    4.52207373422402
O           1.76389923163647   -2.13177608008568    2.90054297788740
C           1.71689888475360    0.38563350490359    1.23858795881974
N           1.06144656631233    0.69500737186661    2.36434435705492
C           0.61859936918358    1.92393970031927    2.48646555646244
C          -0.15341730366418    2.21290964335879    3.73404022519809
C          -1.65583943539118    1.96205282669866    3.49329343161853
O          -2.42726568209816    2.19606247925654    4.63814667557791
C           0.82017205494031    2.89970901707101    1.45778630379560
C           0.42084478344614    4.34602561170085    1.61741208292717
N           1.43337969375030    5.11213565224781    2.33093694747791
N           1.46033947342618    2.60863068893922    0.34857622167848
C           1.91629179526708    1.35469731944964    0.21342867401395
C           6.34489657374495   -2.00933640102502   -5.68300529456289
N           5.90150240618442   -2.70778438940770   -4.62684251341874
C           6.29284703568743   -3.95375307999467   -4.51342915048542
C           5.79796509249160   -4.65939575813483   -3.29667282381447
C           6.81801080537221   -4.60150622770248   -2.13009729466715
O           7.57492207941760   -5.76656865868616   -1.98954012340660
H           9.13420475613715   -6.99818577897913   -4.50322123943709
H           9.49464420497994   -5.42480735873809   -4.79577722085881
H           6.83664455027026   -6.62373792146538   -5.05700804944904
H           7.89279871668557   -6.27923806416783   -6.45211002958064
H           8.77625903934197   -2.99873327657943   -8.81035710546442
H           8.30974538629502   -0.08127938110754   -9.70276849896146
H          11.65005128709515   -0.24709457227305  -14.65485357950114
H          10.10962788331625   -3.35111982161095  -10.60924288203628
H           5.66455741078800    2.02596188912324   -7.18485875088927
H           5.57973937256086    3.89654391896522   -8.18584879605604
H           4.03989407403781    0.07051074986316   -3.04136904058003
H           2.64111158719804    2.62721715401853   -2.05047932778534
H           4.28262569786199   -5.96666229402372    0.34691959880893
H           3.31865386747667   -6.26530330653998    2.63901725081977
H          -0.00758723394675    3.24312090397378    4.06519545789735
H           0.18211867884767    1.53048662396819    4.51565056715491
H          -1.80917916432284    0.91093616598646    3.24094646422495
H          -2.00669546377214    2.57925560867182    2.65154794331891
H          -2.33215680594023    3.11672547100294    4.90829250634335
H          -0.52397263581418    4.44082187818728    2.15570785148910
H           0.30867719798731    4.78748871131956    0.62558313798536
H           2.29312613297937    5.13552220306777    1.79353939635415
H           1.64149008087677    4.69249250860750    3.23154450213653
H           5.56998053425474   -5.70549625758178   -3.49966036847520
H           4.89601696264577   -4.14602546068947   -2.96504304198763
H           6.26189988766991   -4.48190118041805   -1.19865398435764
H           7.46252267152868   -3.71936853056558   -2.25421860107156
H           8.10024296669817   -5.89320127081485   -2.80743180767466
