104
 SCF done       -180.837018207128          0.000735096865
C          16.64911589991360   -7.04605808930300   -5.91058140984636
S          18.32787288538356   -6.74714950399349   -6.00104038500654
C          18.12158624723377   -5.04551626031050   -6.00284100872840
C          16.79551005357379   -4.70768775872765   -5.93888461953615
C          15.94269922642670   -5.86997132003019   -5.87471499445363
N          14.60257986221877   -5.73084798145292   -5.74874955046294
C          14.11805889300856   -4.52307243098763   -5.70374124757911
C          14.96516293012991   -3.34490184126357   -5.90010401394660
N          14.43821767375605   -2.10672041053047   -6.03154546902319
C          15.26002218981494   -0.95532074205591   -6.30857946688167
N          16.26712739054359   -3.46331158066514   -5.98887228537185
N          12.73866388892635   -4.42941190518757   -5.51639359481452
C          11.91892152296372   -5.53740737981588   -5.96452902565580
C          12.16972644356093   -3.40630171336292   -4.85362118171940
C          10.83134765182408   -3.17775560760034   -4.71377923094001
C          10.39745330306209   -2.01080243278807   -4.05169781413647
N          11.26352319418530   -1.10164161884330   -3.59390321446525
C          10.52099563268328   -0.10333989006969   -3.09861326746284
C           9.08278691544134   -0.36901979357290   -3.25182181511260
C           8.29649062652160    0.75109283285195   -2.71790034143161
O           7.08613671126861    0.88887788664951   -2.71002706902926
C           9.33045764994015    1.66796708814247   -2.22012805986319
C          10.67060119938527    1.12077550481411   -2.47928369804448
N          11.62909805122532    1.96199749705371   -2.02982175439473
C          10.97360063291824    2.97839198956143   -1.50846335359394
C           9.54157266036528    2.85919341477417   -1.59148708701538
C           8.98653528136565   -1.60429341523573   -3.84822355613625
C           7.84508812857857   -2.36664458317316   -4.21161516294563
C           6.58267009498571   -1.88209608092017   -4.10503010568735
C           5.40001156955444   -2.58180784779305   -4.44827350342690
N           4.18605440035561   -1.92873133010343   -4.44061327979892
C           3.21848545534474   -2.80301785452169   -4.81578620293861
C           1.86204796460477   -2.93572622237956   -5.06904663469338
C           1.66343240996549   -4.27786367460766   -5.44111784825642
N           2.87802654634503   -4.93974269766134   -5.41458879121405
C           3.84378490235461   -4.06183898504771   -5.04933174204144
C           5.20734701617104   -3.91896445953851   -4.82715335841404
C           0.48241516720806   -4.95081287226789   -5.80733938780635
C          -0.73518089113152   -4.36720989311024   -6.00058202000337
C          -1.86617740877828   -5.13051844376804   -6.36410639124943
N          -1.85997419530365   -6.46214409716724   -6.25483658002907
C          -3.10623019634559   -6.86480200441485   -6.54108950230567
C          -3.97586757080273   -5.72679096125924   -6.86047162482600
C          -5.33350459783984   -6.18139650524677   -7.17789847039378
O          -6.30262659612959   -5.51787668022267   -7.49429540686356
C          -5.22527436381595   -7.64340354031904   -7.02159159773318
C          -3.85625909456222   -8.02007805214875   -6.63718811490644
N          -3.74250039269793   -9.36334883780966   -6.51662194577863
C          -4.93788923442859   -9.83356539609544   -6.80295260974388
C          -5.90571401217645   -8.81858630323122   -7.13252798585370
C          -3.18492678498340   -4.60496575515173   -6.79958726405276
C          -3.57574510729549   -3.28544303361894   -7.14974969809110
C          -2.75614558447632   -2.27142565938104   -7.52190863613578
C          -3.22583814632930   -1.00849294584331   -7.95493453486583
S          -2.09430736926780    0.25685145826839   -8.34887815690461
C          -3.32885925764882    1.36045535531507   -8.78266841196199
C          -4.57383132375278    0.79963087299178   -8.64703200231165
C          -4.52702214838482   -0.54797691954382   -8.15751832151181
N          -5.66242593463701   -1.23049711731234   -7.90885669931917
C          -6.80471162994714   -0.63038370701435   -8.13707351911935
C          -6.84170953644568    0.68027071520001   -8.78840621343822
N          -8.01851170003649    1.20297405418982   -9.23142308549148
C          -8.02162121241111    2.38075597269997  -10.06499477688709
N          -5.75246595890847    1.36942561450229   -9.00343400982585
N          -7.94871915169243   -1.31554906825940   -7.81406824441010
C          -7.88557327667612   -2.75650386029236   -7.67932678446255
C          -9.07977760797174   -0.66915679142763   -7.35046714004600
C         -10.23247106800660   -1.25513773282017   -7.03833075751946
H          16.27314680450777   -8.04774691264221   -5.87392536943146
H          18.97096014513258   -4.39681029878542   -6.05564100067351
H          13.45004429771826   -2.00397896784169   -6.19503689311811
H          16.25653937436678   -1.15047679225107   -5.92040844839063
H          14.82910104378036   -0.08630954298603   -5.81375551650384
H          15.33358687134276   -0.76109123073762   -7.38231908285544
H          12.57950734580187   -6.33473000563702   -6.29522802930484
H          11.27779845459975   -5.22103545677721   -6.78988401636262
H          11.29942136087189   -5.90248910887671   -5.14564058188120
H          12.83086904740240   -2.70686655087385   -4.36120250441156
H          10.08887203904491   -3.83889070547934   -5.12916578734354
H          11.51211559747118    3.80207453003548   -1.07254000702344
H           8.83080553834926    3.57429519766479   -1.22643231183548
H           8.00773500413242   -3.36500790112674   -4.59202060838318
H           6.44791096595947   -0.87176708319579   -3.73962538081822
H           4.07247159855940   -0.95940364203417   -4.19559024488402
H           1.09878937529364   -2.18862122756768   -4.99235802970173
H           2.99542713619918   -5.91144411762285   -5.64554234794332
H           5.97059513482100   -4.66603302273059   -4.90669550517163
H           0.54560655096178   -6.01754225583091   -5.97854920994122
H          -0.85724780656318   -3.30403359436888   -5.86961781137813
H          -5.12303574608228  -10.89367615641833   -6.77508015114648
H          -6.92980170903277   -8.99299604958726   -7.39900154730105
H          -4.64227453454599   -3.11596968013893   -7.19792860080699
H          -1.68315270062390   -2.40367745888584   -7.55510852059783
H          -3.08001753533397    2.34800931963006   -9.11310148639037
H          -8.77552204416305    0.55249384195692   -9.37968570570912
H          -7.80735039645910    2.14475291452624  -11.11217293162550
H          -7.24935327899245    3.05363854269084   -9.69979181032714
H          -8.99740732261734    2.85935397176608   -9.99609633711363
H          -6.90999641998433   -3.11036762365128   -7.99550655084927
H          -8.64916862460232   -3.21700284608906   -8.30678159629729
H          -8.04789843858718   -3.05933928649110   -6.64471051156638
H          -8.95800589365489    0.39454682636018   -7.19969097435689
H         -10.40984313380415   -2.30874965553801   -7.14331921900388
H         -11.04447502137691   -0.66612663798899   -6.65424033142166
