130
 SCF done       -198.316620582579          0.000439288518
C           6.42793315308660   -2.44168683906072   -3.16836259609672
S           6.63642116555544   -0.82629686275173   -2.63553041376465
C           8.08511233116276   -0.65969275972153   -3.60134107764093
C           8.35201981601650   -1.82844235449726   -4.29092106687234
C           7.40175448438438   -2.84369669105046   -4.03521081900950
C           7.46699106731230   -4.19431625123337   -4.67745335212482
C           8.86378378462638   -4.45630908395824   -5.23817445369797
C           9.35897999214190   -3.26662580994268   -6.08138726171536
N           8.50411496492334   -2.91301519380368   -7.20134425905950
C           9.53171533155661   -2.03369404798670   -5.18796343315007
C           8.84181670955368    0.54245037848924   -3.60190313832013
C           8.52799004643699    1.63606080733941   -2.86903309382121
C           9.28260744018565    2.84432605504602   -2.84730936517913
C          10.20256718928731    3.26894042482452   -3.76829027338229
C          10.61539927389374    4.60505366983777   -3.42691407516785
C          11.51010398445608    5.38033186693217   -4.16691060090611
N          12.20940695961049    6.03857029500302   -4.79975421615789
C           9.92864881893248    5.01800603838565   -2.30789348490730
C           9.06788889555557    3.95456751612205   -1.89407371374931
C           8.23889385783560    3.95619225378796   -0.78929643018966
C           7.71191899802181    5.14462824010445   -0.06884275139246
C           7.17100752716819    4.70001149756867    1.10832557688113
C           7.28514534286968    3.27063564928850    1.15354117793191
C           7.88213305742379    2.82301688260130   -0.00814612970529
C           6.85921527460612    2.47215451341546    2.22149680793725
N           6.50620612563196    1.82579473467621    3.10294019625233
C           7.64599884514951    6.48462816265786   -0.54182112701274
C           7.74318120526229    6.85947120477994   -1.83955695882401
C           7.88727609721299    8.20092662419580   -2.33216111598455
C           8.47382048888580    8.36574214118147   -3.57412620680373
C           8.77784578292917    9.64951492432456   -4.04778687533499
C           9.44344244100085   10.06131422157726   -5.20064530870334
C          10.08524462960420    9.16848091819020   -6.20250387230278
C           9.52805461838003    9.36857963629256   -7.62462987918970
N           9.71292753503753    8.14182965599501   -8.36984409084090
C          11.61898455934493    9.33234016387602   -6.16856085381265
N          12.25399051810527    8.26922101573407   -6.92967306083357
C           9.45975641230613   11.50333052489491   -5.17300818877140
C           9.94017723158012   12.41385139402746   -6.04303190755079
C           9.87742252332501   13.87372059223760   -5.76415860310689
C           9.15499767178619   14.24121609446705   -4.50920800797483
C           8.66176010637842   13.32369609874391   -3.65604528373481
C           8.79024010395373   11.94373059263397   -3.93885963240006
C           8.38793512253920   10.80792257003291   -3.26046263788881
C           7.74048300802350   10.61503555862894   -2.01889115293934
C           7.52254840801581    9.35333302339524   -1.56476729583034
C          11.30769601382752   14.36435549396333   -5.67998411566907
C          11.83235152481030   15.27012162927270   -6.50055021230383
C          13.22424616535172   15.67162817006414   -6.47514438887320
C          14.26838618497172   14.81341255044052   -6.33786105322755
C          15.50322788067111   15.54439944622611   -6.54588884856267
C          16.78672017012342   14.98900893923251   -6.52583347223906
N          17.84907933677172   14.55234533803802   -6.49834546295756
C          15.20111366089805   16.85651085780209   -6.78095428766968
C          13.77530210515716   17.02552675776300   -6.67479693259614
C          13.08148113362486   18.21151361490658   -6.61497403384974
C          13.62637628578906   19.59285287700638   -6.73223987587708
C          12.56110466820664   20.43939218289394   -6.85838240709646
C          11.34589959276165   19.67692017490807   -6.73422411954658
C          11.65870021134534   18.35222941130220   -6.55523342553529
C          10.05586726308257   20.22055864186238   -6.76416977203074
N           8.99649335931671   20.66359820406311   -6.79043423573364
C          14.99669793734162   19.97353779648174   -6.62173554460759
C          15.49294363430223   21.13677795384986   -7.11062957431221
C          16.82703681895668   21.61884745469742   -7.03957896559917
S          17.16806094659064   23.07998189520060   -7.92930873550530
C          18.83807040157432   23.05438811182429   -7.46224225582459
C          19.11004873858361   21.95545533829536   -6.66471783177998
C          17.97839187982292   21.15483808091849   -6.41318861301259
C          18.04790163696478   19.92568344225955   -5.55963210612494
C          19.37249444934475   19.82270006604832   -4.80486669493991
C          20.56361038933660   20.14281279954035   -5.72201968930828
N          20.67605038934109   19.30829468811980   -6.90403473833668
C          20.47268688847247   21.60963979897130   -6.15212467730801
C          19.67006972144097   24.11863974472391   -7.95421872023960
C          20.87030782738870   24.48845936878431   -7.50963922417211
H           5.59336949323023   -3.01046238226586   -2.80811550910895
H           6.72654168741513   -4.24488466030551   -5.48380936782996
H           7.19895026962538   -4.96617562087795   -3.95262729608710
H           8.85007407535099   -5.36275636326896   -5.84799930491344
H           9.56506186174905   -4.61442354156516   -4.41669029224552
H          10.33593069661280   -3.52738581859917   -6.50878261303759
H           7.60875803380503   -2.57229725823115   -6.86859471852030
H           8.33689377765350   -3.71888457107600   -7.79336366457746
H           9.67649977924504   -1.16290709884166   -5.83016453161715
H          10.43061802305532   -2.15281937489589   -4.57532338872311
H           9.73363860088910    0.53902937654820   -4.21225589043208
H           7.63535774390748    1.60178666955696   -2.25979610877795
H          10.55438520750093    2.73534265683971   -4.63065547806756
H          10.08479300971395    5.93818875686551   -1.77889491964612
H           6.68992113619607    5.29577372890737    1.86158755933412
H           8.16931559043566    1.80752449622249   -0.20125226927303
H           7.48645696820421    7.23257049424339    0.22509921767837
H           7.80795070868551    6.08845869780418   -2.59551434294918
H           8.74365861630911    7.49813536149805   -4.15920187884355
H           9.86691208876595    8.13057667991293   -5.93444121200825
H          10.01624400178190   10.24124603206811   -8.08974037450898
H           8.45323766166395    9.57775351150793   -7.56876765135727
H          10.69900141836734    7.89183616669429   -8.33988029030120
H           9.42645181139370    8.25490675784750   -9.33548621708123
H          11.93888825191708    9.35716580972350   -5.11253223469082
H          11.89574845311370   10.28970930903218   -6.62098868012441
H          12.13731984334896    7.38687547858306   -6.43380376401552
H          13.25320032718540    8.43802481480864   -6.99031281094904
H          10.42806937762338   12.12801017839520   -6.96336511146237
H           9.40277242234667   14.37839904598766   -6.61720280118142
H           9.06938344773430   15.29811858578793   -4.30663360601279
H           8.15392916734367   13.62821978631283   -2.75237620923992
H           7.43446412953460   11.47275821137466   -1.43796979604845
H           7.03349817027926    9.20189379811044   -0.61467294627098
H          11.89228676939267   13.93385837956880   -4.87975883907043
H          11.22528450033346   15.70217288469689   -7.28698892934358
H          14.21543734831973   13.75351478303803   -6.17265623644705
H          15.91007346963110   17.61451046826269   -7.04323657523046
H          12.58925058246938   21.50829516651449   -6.95180717066785
H          10.95018914791273   17.56496282395502   -6.39873760870984
H          15.63836987231753   19.29998202976624   -6.08352455794469
H          14.82282055546074   21.77658662636717   -7.67092309832053
H          17.92418740106737   19.04034323953880   -6.19451247315480
H          17.22643693524897   19.93130350202570   -4.83869301820747
H          19.47414945925141   18.81597945182191   -4.39330058862927
H          19.37782825044082   20.52843495360734   -3.97205382847282
H          21.49173348150261   20.00185115028902   -5.15364138066812
H          19.88085415480476   19.44889061338915   -7.51732275613699
H          20.71059958618580   18.32723629211663   -6.65075723784230
H          21.21240293124193   21.79037725543764   -6.93427701638416
H          20.71288583081392   22.24732458431708   -5.29668400493712
H          19.22029108521690   24.68134929219547   -8.76380360395162
H          21.36528071953978   24.01676304598390   -6.68194071969586
H          21.38901194966782   25.31251486573197   -7.96817353191127
