118
 SCF done       -209.268035852755          0.000706497357
C           6.53437176619673   -7.63352991869491    0.78308232386843
S           5.75843234318677   -6.46240122402754   -0.19321009919938
C           6.24713669086558   -5.18792433124261    0.89453891768130
C           6.97326974454681   -5.69586089469649    1.95738181633106
C           7.13613680426324   -7.09726492017042    1.88526703024420
C           7.88048930267344   -7.87588957281249    2.92390045791510
C           8.80060614848061   -6.95176047446361    3.71633979301153
C           8.01073389839598   -5.74025300548764    4.23861565551967
N           8.74514711352009   -4.90107923022755    5.16880824947840
C           7.55845108803077   -4.87375593421566    3.05870021226278
C           5.90245789727581   -3.83135872559112    0.65756498212669
C           5.22905524788475   -3.40137974792993   -0.42944799298112
C           4.89282244769664   -2.03242306915337   -0.70487792862238
C           4.99066538427095   -1.52004140021751   -2.01869916293553
C           5.41859681613800   -2.32609546927539   -3.16716006926971
O           5.72542918228575   -3.48127814987248   -3.21420814566089
S           5.44741834278726   -1.28152507346551   -4.63910657328356
C           4.96315230501904    0.18148750081812   -3.73494829872121
O           4.86212075266296    1.25356284952118   -4.26380405174092
C           4.74099151407290   -0.17767228352241   -2.32255407859662
C           4.36447141264309    0.74197860419743   -1.33634122882803
C           4.18964975787849    0.22417742526206   -0.04845454458339
C           4.43308852042958   -1.11571081464462    0.26818979566791
C           4.03362209816845   -1.47839024052344    1.63746377592642
O           4.01348548182507   -2.54773350344819    2.17208307633954
S           3.44839231130507   -0.00020415191979    2.49309088179349
C           3.64205458985230    1.03864517665664    1.04961981803674
O           3.32569248126381    2.19275018471439    1.02956987150428
C           4.17693028542211    2.16739800230634   -1.63846936385896
C           3.20880667938302    2.56869500408057   -2.52163408521345
C           3.13120866880263    3.92370937221805   -2.89044579621225
C           2.33527138073113    4.56200167058029   -3.84124764179345
C           1.30933748253031    3.92179206825601   -4.68778363228526
C          -0.03293505024684    4.67948061755264   -4.70388227347375
N          -1.00632552326393    3.91938458285036   -5.46590379177174
C           1.83541078900740    3.73871561742887   -6.15154639918078
N           2.77418624873548    2.67302607599023   -6.32799135364259
C           2.78384938645912    5.93730960900672   -3.89678311879092
C           2.48916668897573    6.94364795916194   -4.74219347049108
C           3.12742561563182    8.28379848739545   -4.60744368405393
C           4.04011094572658    8.43263559422517   -3.43861533439948
C           4.38410011306936    7.39249266593336   -2.65146588174669
C           3.81545721532067    6.11865715416276   -2.87058253405967
C           4.04192029318256    4.87521219209941   -2.28747792116701
C           4.98071112430978    4.43807661647457   -1.33485065873602
C           5.05202114941246    3.11053966554229   -1.03291488211391
C           2.00012885340291    9.28750719210672   -4.63851466621340
C           1.46099489274563    9.81540080687794   -3.54972112623460
C           0.33620976068619   10.74578417275321   -3.59769738879032
C          -0.89765562444029   10.42690151102469   -4.17971581448293
C          -1.24402696469869    9.10002935058685   -4.70676478209483
O          -0.56063732153991    8.11665723863980   -4.79896349407899
S          -2.96013243022713    9.10718813830332   -5.22308826692180
C          -3.20139733222315   10.83517058762740   -4.77835729843086
O          -4.24993645560081   11.39140811325507   -4.93745353207408
C          -1.95083577235173   11.35504681014923   -4.22064685966310
C          -1.82610354154124   12.64986730393572   -3.69202990428007
C          -0.59441578846637   12.95671324423798   -3.09755315654910
C           0.44930402725276   12.02733085509729   -3.04779860746117
C           1.68396447289554   12.52364340751138   -2.42732993208039
O           2.72280145260317   11.94217351632003   -2.28282260282993
S           1.42725557463778   14.21778996487150   -1.90465896767934
C          -0.25483008880041   14.27918952547085   -2.55922951432174
O          -0.90699363770081   15.28027535814823   -2.55455316631243
C          -2.91844311886954   13.60464919202033   -3.73133125100306
S          -3.68570006144340   14.09587165686349   -2.25679870307670
C          -4.80475036116186   15.09556823803136   -3.13237851562332
C          -4.55982258288370   15.05015595394547   -4.48663818025729
C          -3.48163544194693   14.20274629966112   -4.82871125636376
C          -3.00680868507486   14.00483138708500   -6.23407000965783
C          -3.62003137195531   15.04006411864174   -7.17448459727747
C          -5.12330736479283   15.18939223436848   -6.92298818695577
N          -5.79035738914595   13.91691756411946   -7.12507472377611
C          -5.33632567291038   15.80055178805584   -5.52300162796427
C          -5.82342901108839   15.84235610686834   -2.44661104925985
C          -5.98522565017019   15.87122510494519   -1.12649941291453
H           6.50559897271870   -8.66562946120592    0.49266016543790
H           8.45150136616596   -8.67882016781151    2.45255378627712
H           7.16007644376780   -8.34131632101117    3.60424395047696
H           9.61523171033214   -6.60177781222291    3.07625185489572
H           9.23935127838779   -7.49883580995301    4.55457253592985
H           7.12397054555181   -6.10428825598013    4.77125284951490
H           9.60912976638143   -4.57686659092715    4.74575668569032
H           8.98549524137690   -5.41897625399481    6.00639677883888
H           8.42597068486225   -4.32440889680326    2.67556304322560
H           6.83737172795070   -4.13589928647801    3.41333650274228
H           6.25335173661089   -3.12637242539591    1.39784988847637
H           4.99330546448524   -4.11538536778356   -1.20655709334351
H           2.53074769941014    1.84450854558743   -2.94886904584463
H           1.10605059167071    2.91706323186492   -4.29872095733903
H           0.07643056397987    5.65176997678319   -5.18125197881531
H          -0.33695197918482    4.85470496365313   -3.65932845693546
H          -1.29399371739983    3.08800709104457   -4.96063662151117
H          -1.83013844903759    4.47803286624498   -5.65067969208111
H           2.30458388422352    4.66737555401651   -6.48156017037030
H           0.95939030543199    3.53810056572005   -6.77320838000409
H           2.37136621449605    1.76870053618398   -6.11765087667784
H           3.62109042162324    2.78698567916101   -5.78334733733078
H           1.77539026724685    6.83860441682341   -5.54446682965221
H           3.72731619744134    8.45322589407129   -5.51706349664462
H           4.43731331228997    9.42172829690534   -3.27044196905736
H           5.08481709056552    7.52268605812179   -1.84014002827284
H           5.65187817915030    5.14582158808729   -0.87273184495958
H           5.79020250052394    2.74765241905733   -0.33327447549520
H           1.60207074423696    9.51716744800578   -5.61692904734228
H           1.87866810287236    9.61816502014367   -2.57228617984614
H          -3.29164542784328   13.00490086730739   -6.57144104218101
H          -1.91534811998512   14.06312179744867   -6.27005629188288
H          -3.45404903820128   14.73244745271272   -8.20683675640331
H          -3.14285463837366   16.00961336207858   -7.02089540192152
H          -5.53582861007016   15.88283539917575   -7.66700488110653
H          -5.50331179939183   13.24403032787026   -6.42174175624586
H          -6.79532990373968   14.02671132964601   -7.05121754188591
H          -6.40201524746932   15.78786251191428   -5.27781779489192
H          -5.01312954711406   16.84618292345501   -5.53362815877515
H          -6.48273835058910   16.41569621866539   -3.08481183596702
H          -5.33588297943841   15.31699001170340   -0.46904840566094
H          -6.76601550786257   16.44939499429275   -0.66533975808707
