98
 SCF done       -180.719866358681          0.000803067497
C           2.58346559774984  -11.14730705345150   -7.13835448495517
O           1.82064291440616  -10.52938146674868   -6.22110171833684
C           3.34363279987741  -12.10182123176470   -6.53497167830992
C           4.35863399931626  -13.14938857462031   -6.74456008265481
O           4.91431613279394  -13.52332890093297   -7.74129095014275
N           4.56451941288679  -13.65983214957775   -5.46821150782298
C           3.80528265632688  -13.07710552150481   -4.44833536081729
O           3.84700451278978  -13.39986246967386   -3.29252834134473
C           3.01674199581702  -12.05967755248362   -5.14916840941866
C           2.06900432249381  -11.06984254833785   -4.99270727913774
C           1.40286373683627  -10.59882210568368   -3.82742334242186
C           0.47299827103340   -9.61600200494260   -3.85162003707718
C          -0.21592080700840   -9.10511383819316   -2.71887973052524
C          -1.27324091439333   -8.09510524245217   -2.83258273788361
N          -1.80300397345511   -7.73322472480683   -1.70101738634676
C          -1.15259360747283   -8.46193375794351   -0.75158766544769
C          -0.14452801938531   -9.34688757578194   -1.35950758624812
C           0.55180877283064  -10.06650851746508   -0.31836853738779
S           1.84843390998398  -11.06973626187810   -0.48676781354807
C          -0.07681600275958   -9.64135743238106    0.90978799832633
C          -1.10685032187048   -8.63443672744493    0.60729617027350
N          -1.67657262566277   -8.16158653430398    1.75148502542308
C          -1.05761606932169   -8.77058501325157    2.72063965329636
C          -0.03245724261214   -9.72428714486419    2.28617030838157
C           0.75196988682039  -10.53351530134761    3.17728126208774
C           1.00735657463625  -10.09891560752031    4.46454264345772
C           1.80369018423218  -10.87766466191506    5.31906812481174
C           2.22178987117875  -10.65244662838788    6.62968514064789
C           1.94349517190769   -9.44375392694405    7.44910247939400
C           1.18240949588412   -9.78374313512552    8.74735830349366
N           0.43035981322986   -8.61987350556399    9.16173955483488
C           3.24801989890666   -8.67427068133969    7.73535005894302
N           2.95925649743464   -7.38113760068634    8.33680714871312
C           3.02390959163053  -11.79266810848051    7.00889379377106
C           3.66944971065862  -12.09581204907565    8.15134675605122
C           4.49782606744327  -13.32281711852314    8.28258193043362
C           4.46724717777869  -14.22966277602475    7.08984728853632
C           3.80946084919662  -13.91818551084178    5.95670371092077
C           3.07883201963763  -12.71140252698688    5.86288533473135
C           2.33074985322348  -12.14751302730290    4.84451784098839
C           2.03207625079045  -12.57715712848302    3.53305022851921
C           1.26907246437529  -11.79037648263024    2.73008016559572
C           5.94943609457491  -12.96606800094828    8.51517084691777
C           6.48525277805672  -11.80822383378919    8.11442021396931
C           7.85050038855837  -11.42231185529411    8.28937115299135
C           8.96046159649854  -12.18689608506815    8.85978634491039
N          10.09886192909457  -11.54986793041892    8.88182841390936
C           9.84508996591943  -10.32602644551097    8.33861506596999
C           8.42810342245042  -10.21831602396984    7.95902802314672
C           8.16019478850239   -8.92373332100213    7.38989400209073
S           6.71036774450807   -8.35112365645202    6.86947069282900
C           9.43852575756926   -8.25896435930087    7.40971742448330
C          10.45747428846448   -9.14193315271199    8.00742414455197
N          11.67287503967117   -8.52863749056070    8.03166828354508
C          11.49182171070581   -7.35518171104441    7.49803801005110
C          10.11023361178943   -7.10460234871027    7.07441217891470
C           9.65888795419701   -5.91364544958884    6.45300861470665
O           8.36004989987047   -5.78431526156070    6.08443952309390
C          10.32650424290568   -4.75449728086977    6.10624914372439
C          11.62492708973067   -4.07270699459024    6.11439179843044
O          12.70054725805468   -4.42345155728703    6.52515554334866
N          11.35523902374096   -2.84812710181436    5.51017113800693
C          10.03266999487934   -2.65260723975618    5.11023135142038
O           9.61063363327980   -1.66226062166629    4.57556385826568
C           9.36879713566110   -3.90112920954572    5.50190534089427
C           8.16634305994586   -4.57646921095186    5.50728710049156
C           6.87060337909391   -4.19397373338687    5.02123158247893
C           5.80051643132277   -4.98358105122799    5.09902736466927
H           2.49281326414440  -10.82178673288127   -8.15586182731721
H           5.21979063274851  -14.40743639938261   -5.28750000264230
H           1.69211878867683  -11.08034399562765   -2.90417710387222
H           0.20839293582165   -9.16941332668236   -4.80226540177996
H          -1.61455623809726   -7.66819262272783   -3.76002034128900
H          -1.34256860388357   -8.58658304810785    3.74200861367268
H           0.62719679828162   -9.14767580320860    4.80505596561659
H           1.28609420596292   -8.77855332182208    6.88089349377911
H           1.89717457715644  -10.13938930240480    9.50705806748297
H           0.47352366173313  -10.59502801476483    8.54720035062232
H           1.07727266509585   -7.85271801541784    9.32417785274742
H          -0.08790496326796   -8.80364811503771   10.01284548533307
H           3.81658420828195   -8.59404043826741    6.79485530503268
H           3.86356961501250   -9.23383004827890    8.44341698124128
H           2.48797556469095   -6.78430281706369    7.66344017590199
H           3.82765751629752   -6.92336299115835    8.59333115070790
H           3.64457498637631  -11.44848863253476    9.01575397197967
H           4.15209901376464  -13.88122167519379    9.16549872389480
H           5.03540533777834  -15.14325860941134    7.17390581056823
H           3.82473848916501  -14.58849428722589    5.10989870608841
H           2.40893999303380  -13.52468311972423    3.17920214253283
H           1.02697917094173  -12.10989779721568    1.72984876895792
H           6.55190319983970  -13.72828968645469    8.98687887536332
H           5.86340452715472  -11.06818159966162    7.62608738923911
H           8.90095384421742  -13.19154389763542    9.23959246757284
H          12.30112663699848   -6.65417088785482    7.38998838893926
H          12.07009142970115   -2.14790772630385    5.37084638329832
H           6.83142435973633   -3.20810241616332    4.58072029437257
H           5.86386237790540   -5.96562679956737    5.53826552961164
H           4.84347295554859   -4.67062681768857    4.72053035267725
