71
 SCF done       -136.236433525878          0.000740021303
C          -2.14890012998137   -8.89682723411300   -3.02677575332412
S          -2.72480559895936   -7.42856788333365   -2.39055258860955
C          -1.14243612419620   -6.70907952068300   -2.35552651433783
C          -0.18969829393684   -7.62251147803031   -2.83797607146901
C          -0.78698945624326   -8.87182367996064   -3.21869630700985
C           0.02912142752004   -9.92103639536539   -3.73502052600588
C          -0.56863519389345  -11.14204728920999   -4.11044092122889
N          -1.05735110017990  -12.13498470720458   -4.41162238155068
C           1.38310564096269   -9.72331763932820   -3.85731392656149
C           1.96073801802713   -8.50188292824224   -3.47123337687596
C           1.20571288350338   -7.47463157812727   -2.97355837126943
C          -0.98057145010419   -5.37438291420142   -1.90017975545659
S           0.55400016843409   -4.52857061598112   -2.03396066338847
C          -0.08407104008046   -3.08056709922618   -1.34004580422256
C          -1.38222192559930   -3.23951335994475   -1.02808220299646
C          -1.92166172148297   -4.51968531235860   -1.33022650502794
C          -3.29763737056446   -4.65624865827431   -0.97788607902582
C          -3.89707151790658   -3.56882162758913   -0.42898216106994
S          -2.66990209739045   -2.23489742067753   -0.30592757251851
O          -2.35721237484427   -1.93893579607346    1.06359390012488
O          -2.98185643376231   -1.13550963633626   -1.17779332362403
C          -5.24364291183389   -3.48198244302286   -0.01009764639931
C          -5.97259542539816   -2.43609536712697    0.54052462213151
C          -5.47312311978983   -1.07202701426009    0.88830647242579
C          -5.07207401032019   -1.00391514248460    2.36482464843968
C          -7.30147774990419   -2.79776030494742    0.79744492852406
C          -7.63124421838428   -4.09258991481484    0.45857693825292
S          -6.24937290788464   -4.91052769669737   -0.20186042772450
C          -8.90716147702990   -4.70172989305358    0.59510081219193
C          -9.18497399412053   -5.98275009302180    0.26509156084870
C         -10.45836109147156   -6.61030925937077    0.37290541508800
S         -10.52318928715236   -8.35984252305889    0.40497592798887
C         -12.23745970429046   -8.37043181646653    0.59633389822100
C         -12.72173239273804   -7.11216121514169    0.61844760471199
C         -11.73989553531534   -6.09301992348373    0.48097642440477
C         -12.26666090834032   -4.75315759784093    0.46415478333390
C         -13.58312957791941   -4.65741238785849    0.68621851689311
S         -14.32583858981848   -6.32571365292704    0.69984180503793
O         -15.00170636881692   -6.48298422236236   -0.55956595109130
O         -15.07815539207691   -6.64091398880958    1.87877658153929
C         -14.50601336250545   -3.57609516762861    0.79465824845690
S         -14.94933629798613   -2.53356222306274   -0.51089835572749
C         -16.23557316854595   -1.84783550048501    0.37670961696170
C         -16.34451212849929   -2.38181061116991    1.64370995808268
C         -15.33798637176728   -3.37337796256629    1.88530216084631
C         -15.22985692004545   -3.97098181516544    3.17366185304327
C         -14.10066775875280   -4.76161976493710    3.47993327949965
N         -13.12657372821304   -5.29603593199037    3.76861574153824
C         -16.16821541089488   -3.66047213280866    4.12762673766485
C         -17.20070252755493   -2.73777675697129    3.85735136001254
C         -17.28356511524919   -2.08669928628955    2.66161014540865
H          -2.82564977038373   -9.70323189266544   -3.22871872004661
H           2.00713521000963  -10.51280946742987   -4.24853594894856
H           3.02810172398987   -8.37924535447564   -3.57174800033056
H           1.68237616443215   -6.55411095758494   -2.68189923201505
H           0.54750506309262   -2.22521543837090   -1.21407191389416
H          -3.83819893749866   -5.57610714541575   -1.13438627903298
H          -6.27966481812580   -0.35809356374969    0.70263855075584
H          -4.62426827579903   -0.79478882054754    0.26912047340024
H          -5.88147346476780   -1.35658873760684    3.00154370213811
H          -4.83634672154700    0.02215772216794    2.63353379349791
H          -4.18898511505822   -1.61242162954983    2.53847733529570
H          -8.01689611581434   -2.11557530774393    1.22295913985514
H          -9.67245105594357   -4.06932008722352    1.01985871621247
H          -8.37621986627086   -6.61546432655705   -0.07872396573502
H         -12.76572873605684   -9.29838700263227    0.67930013220500
H         -11.63313753343161   -3.89433256804141    0.31216771146104
H         -16.85411926639493   -1.09811725179871   -0.07458401765637
H         -16.10309448654515   -4.11237393860048    5.10582511032846
H         -17.91840615093626   -2.52889664034127    4.63624133872045
H         -18.04845670362922   -1.34857320777476    2.47501131864910
