84
 SCF done       -148.192332920633          0.000805667444
C           0.85375890171775   -0.24233043452283   -3.74190094404088
S          -0.69762254363010   -0.29820969981853   -3.03254673392798
C          -1.04174333268071   -1.87196376964475   -3.68765137130607
C           0.04570410009554   -2.33045900378142   -4.44178893183535
C           1.12423941376322   -1.37976281981516   -4.46194121702243
C           2.31569766751885   -1.68337325918113   -5.18739356757309
C           3.36937043129372   -0.74836890740772   -5.20732826030469
N           4.22472781073489    0.01708009873530   -5.22124834545707
C           2.41315638512937   -2.88174970200525   -5.85211056742171
C           1.35454745741049   -3.80603521467118   -5.82104263600116
C           0.19810321456218   -3.54695030353516   -5.13762771239907
C          -2.29929723107591   -2.46362676617141   -3.40041122858690
C          -3.28436894743323   -1.90783694687260   -2.60384629639842
C          -4.40883816528909   -2.72698816769894   -2.51261728105683
C          -4.29540109602510   -3.92562929477518   -3.24680744935637
S          -2.77686696254307   -4.03021741411676   -4.05181663198589
C          -5.48021691584142   -4.63443207397647   -3.05367165113130
C          -6.29144002311278   -3.85355143182797   -2.20446299162325
N          -5.62760770604877   -2.69659183028429   -1.88643519835573
C          -7.52039440112701   -4.44630796198508   -1.90485109802378
C          -7.66279237306493   -5.67311420702037   -2.52136302458462
S          -6.25416814846194   -6.10938481819611   -3.49112882619434
C          -8.75744561922577   -6.56995103715778   -2.40725367327950
C          -8.82008156768267   -7.75019647144220   -3.06434633862279
C          -9.85507307370250   -8.71286457804821   -2.95446990539678
S         -11.39284065368330   -8.30635449932163   -2.23967509234893
C         -12.02356908610312   -9.85850536840289   -2.63203485456980
C         -11.12880851818885  -10.65334312690633   -3.27101072239110
C         -11.42194246776931  -12.05033531176141   -3.70821202757168
C          -9.86026533674560  -10.01532519235479   -3.44678101119375
C          -8.73994614242627  -10.68317655960196   -4.04930182404758
C          -7.43668956108784  -10.44714825341621   -3.78098682537571
C          -6.35799455411681  -11.08094029333137   -4.45824795243898
C          -5.06605910048609  -10.74249154335598   -4.23413958883522
C          -3.93144905130063  -11.29150519417160   -4.88856429912026
C          -3.85135521839571  -12.33048817136083   -5.79551860583540
C          -2.53761132856638  -12.55569858896935   -6.20888526272064
C          -1.59730092555791  -11.68120786680504   -5.62311955891943
S          -2.35702133315860  -10.57924175619588   -4.54124840768224
C          -0.34615425088778  -12.02641701302565   -6.13729755698168
C          -0.55138429860523  -13.10879390492339   -7.02029007115628
N          -1.88664239581912  -13.41908935839276   -7.05155232941226
C           0.61850699868621  -13.57605346882491   -7.61891753125961
C           1.72333259171354  -12.85480461485629   -7.21052838835966
S           1.31443058446038  -11.58082431236323   -6.06847678080541
C           3.08414794921978  -12.99547311249722   -7.59305664868579
C           3.58588182418687  -14.01075624975134   -8.33038715213417
C           4.95553474435399  -14.10771180604273   -8.72209418332489
S           5.71515459741497  -15.67007292170678   -8.73654445618053
C           7.24771673183897  -15.01653077650917   -9.09895797089785
C           7.20567394276936  -13.64713922727580   -9.24036113118910
C           5.88000011737748  -13.11921471557104   -9.05122518307379
C           5.66835840287319  -11.73556963465570   -9.31969316453963
C           4.38215734590584  -11.15836645531207   -9.39874227148063
N           3.37582640808400  -10.62376384102550   -9.53687069605282
C           6.74340873485702  -10.93195662201529   -9.63066023329885
C           8.04892116295092  -11.45082524284288   -9.71710671488234
C           8.28258966564248  -12.78329224860038   -9.55178832992775
H           1.48312584519933    0.61267682862161   -3.59683707805693
H           3.31245914053026   -3.11616232778717   -6.40248470499021
H           1.46555534833528   -4.73963720607709   -6.35072033667759
H          -0.59572010782588   -4.27532947281008   -5.13012841546348
H          -3.17092655396077   -0.95450427123297   -2.12002748025434
H          -5.97047564707070   -1.95987120457052   -1.29542478066864
H          -8.27750767524674   -4.01844822680108   -1.27321793707273
H          -9.54958660109660   -6.28170222643858   -1.72829366321274
H          -8.01851688845671   -7.99859954845890   -3.74745130339964
H         -13.03369014066659  -10.09333043338111   -2.35872789344493
H         -12.43565684057313  -12.32851069343892   -3.43169386859475
H         -10.72629489062041  -12.74730964274487   -3.24239102429107
H         -11.31987275101622  -12.14015826169258   -4.78955594413461
H          -8.98719030851130  -11.46071321260049   -4.76178582411045
H          -7.16393115614622   -9.74740894421706   -3.00367803392602
H          -6.60388310117024  -11.82932222768395   -5.19907501227828
H          -4.85332123295077   -9.96538390239550   -3.51096576474189
H          -4.70381388979206  -12.89323582085747   -6.12788927214586
H          -2.31367024332237  -14.13832557828236   -7.60820029106957
H           0.66644782926892  -14.38324050176401   -8.32595028234478
H           3.74971268910895  -12.22441323418139   -7.23039134436806
H           2.95790519499946  -14.85367080794553   -8.58414369372700
H           8.09894417615406  -15.66091621657846   -9.18788017938499
H           6.57465035915629   -9.88481552903134   -9.83500586008095
H           8.85988170910217  -10.77830763754898   -9.95214020551502
H           9.27166088190418  -13.20056643272564   -9.66491109738547
