83
 SCF done       -146.075509976751          0.000956662382
C           3.44143108693607   -1.51684517550326   -1.55739370237308
C           2.39295106243156   -1.39651630296905   -0.44879500983042
C           2.62725594417810   -0.17520528974449    0.38540530183758
C           3.39166301448404   -0.24035906737134    1.55542819185001
C           3.52846638663448    0.95557588066900    2.22971184503511
C           4.22358051674483    1.25558239423940    3.43142774811288
C           4.92570480981190    0.35127501333802    4.15572479131853
C           5.62581538236191    0.62577412989525    5.35928611502839
C           5.75920368884783    1.81076963050394    6.05770587968842
C           6.53788167818693    1.65071993912538    7.20409953322589
N           6.98586670512263    2.44206817590594    8.22909170626932
C           7.73436710405194    1.65882141901009    9.06843321343352
C           8.45093780946501    1.83097896044198   10.25142836152142
C           9.03688843849914    0.65000938980341   10.66935710512855
C           9.84216756642677    0.40379054211639   11.80952009627914
C          10.17816313304127    1.34217291902108   12.72831054207327
C          10.98590700627620    1.10739118323068   13.86674658729924
S          11.65552373059912   -0.46211687587167   14.20089502023856
C          12.42991773991453    0.07635301088011   15.62059460352889
C          12.20382870644062    1.41426596074181   15.86335577976284
C          12.69179570841719    2.18280204049693   16.94572803803941
C          12.36768983763664    3.50467915335662   17.03245468670934
C          11.55451394647027    4.11195911720287   16.05972232322697
C          11.05863973924812    3.39793839243919   14.98846197377971
C          10.25147930303996    4.09547187194560   14.06566061417989
N           9.60307617720363    4.72370254770434   13.35550439822143
C          11.37198961441710    2.01626641612964   14.85738670241714
S           8.69506315700158   -0.69527494873577    9.58191020871495
C           7.76440923816066    0.33794401202453    8.56751641336790
C           7.01076497211019    0.33340075988539    7.39407402302600
S           6.47798059959799   -0.71001242752612    6.13325136552846
S           2.67118431405020    2.20831353974311    1.38319846706443
C           2.15517889477260    1.10605746239697    0.12635626599401
C           1.34778167732064    1.66273080595202   -0.90345206618446
C           0.96128948484321    1.08096240750874   -2.06356914848021
C           0.12824832620746    1.69110257399660   -3.04086695076428
C          -0.47550164693515    2.93278162570016   -3.05588024697639
C          -1.22763298307976    3.12740796964411   -4.21652992052671
N          -2.01125316976096    4.11864154206002   -4.74889386914920
C          -2.49000103421349    3.67319447577715   -5.95384898318293
C          -3.32138908968439    4.16113646438925   -6.96592620936893
C          -3.47220534567968    3.24579732115684   -7.98700076415012
C          -4.24984725367314    3.34854067504640   -9.17450368376209
S          -4.82694587602574    1.90693766123861   -9.94403384908840
C          -5.64320172787746    2.77944900696484  -11.16148442193856
C          -5.48577732458656    4.13616603872775  -11.01015267752799
C          -6.01094509173508    5.17391535913271  -11.83717686514380
C          -6.82468333870891    4.83852135984242  -12.93784289268823
N          -7.48737154996723    4.56441293178560  -13.83344660918120
C          -5.70762074923952    6.48309433969561  -11.55145434637243
C          -4.87171329581352    6.80571735471895  -10.46764340365474
C          -4.36164456028193    5.83801019742854   -9.64674655026879
C          -4.67398247366352    4.48239348897459   -9.87543700701441
S          -2.58144590700411    1.75145233258752   -7.69246908323021
C          -2.00072905573255    2.37369233932435   -6.19578336853265
C          -1.20546527032392    2.02946928341395   -5.10193060679449
S          -0.23721001239301    0.74780265474243   -4.48550406327154
H           3.24239388193187   -2.39099686352665   -2.17297776551116
H           4.43379170497552   -1.61679459142190   -1.12338696062327
H           3.43844310649658   -0.63417398469994   -2.19276273429203
H           2.46121834708701   -2.27471861382121    0.19715579601937
H           1.38914962666002   -1.37609624000574   -0.87501694183962
H           3.83205854762177   -1.15736032866125    1.90489909519755
H           4.16973503446739    2.28273654268905    3.76330407358101
H           4.97668029253054   -0.67353526501616    3.81618901385127
H           5.31238857058857    2.73610920659256    5.74530311135687
H           6.80094664006316    3.42272256035741    8.34718464084591
H           8.54498936670737    2.76012702087964   10.78216579097046
H          10.20109389795506   -0.61041479689681   11.93131792038044
H           9.81800149956088    2.35150046351927   12.60804851574556
H          13.01043030049685   -0.60721651211247   16.20676362020493
H          13.31499003834823    1.70592294690726   17.68688327942352
H          12.73240676231816    4.10456072262216   17.85236079543046
H          11.31076124903137    5.16039072337646   16.15034991061372
H           1.03405594954206    2.68143715845492   -0.71444352813526
H           1.28836616966209    0.08583467106037   -2.31546156490980
H          -0.37428511876693    3.65232117576463   -2.26491708815059
H          -2.20626449716029    5.00931797864704   -4.32657585442538
H          -3.82864347489408    5.10690407701240   -6.93414855781856
H          -6.19397896902736    2.26268873571206  -11.92173338358865
H          -6.10183918170149    7.27153328396803  -12.17549827140278
H          -4.62830576273795    7.84290340851710  -10.29323983333178
H          -3.69893372873733    6.10463253576530   -8.83941468280539
