82
 SCF done       -155.449256610635          0.000546802635
C          -0.62932195758718    0.42278975219760    2.39636142716894
S          -1.17069937269346   -0.39572296264970    1.00129420133184
C          -2.41867261693747   -1.24111774043224    1.86899325184548
C          -2.39858615565767   -0.87782484962542    3.22137258749225
C          -1.36281656616802    0.07780704547353    3.50526252939645
C          -1.19259791738023    0.55526355326011    4.83940779652201
C          -0.17550519483050    1.49112626376217    5.11410709006880
N           0.65383717665795    2.25379684557581    5.33279243721072
C          -2.02132763216437    0.09110858503984    5.83190718655002
C          -3.02907952311721   -0.84546444183068    5.54310953565252
C          -3.22134766973897   -1.32315836235255    4.27566563706535
C          -3.24365334629490   -2.14649253119058    1.15262222427000
C          -3.09544583893848   -2.47684378346396   -0.18257646443767
C          -4.04850329489280   -3.40253197893277   -0.60233924361141
C          -4.94960773611163   -3.78939890589057    0.41212814235528
S          -4.59884610869512   -2.99127270200844    1.89863008114470
C          -5.81952157814934   -4.72233770630068   -0.15056448887407
C          -5.42577288898952   -4.88687860343280   -1.49808728273323
N          -4.35363448611664   -4.07324680601287   -1.75689363476470
C          -6.18857507546228   -5.81782302135951   -2.19964503193889
C          -7.17525778720037   -6.37571832694859   -1.40554304453793
S          -7.16497709841262   -5.72471972716351    0.23427349117833
C          -8.12608862908497   -7.37771271275636   -1.71695382197996
C          -8.15478133423793   -8.07515678401484   -2.88328251941905
C          -9.05010375483401   -9.11408372472953   -3.21409883745825
S          -8.70580775724003  -10.06237680180680   -4.64084490621985
C         -10.05621209745775  -11.13682629610234   -4.39397639993257
C         -10.74561891731461  -10.73766960229522   -3.26444752777756
C         -10.20093966225719   -9.60612586497223   -2.59092070975924
C         -10.97985495458122   -9.25031603409375   -1.46525229233965
C         -12.04973099235651  -10.07689889101931   -1.28754507816970
C         -13.07673849156105  -10.03057277432254   -0.25099523062684
O         -14.00080772113595  -10.80326414899845   -0.17091955758407
O         -12.87028471576138   -9.02037701894927    0.61278322741814
C         -13.82841016674689   -8.90326644126056    1.65381512362646
S         -12.17362294448483  -11.34325757140565   -2.48721820283208
C         -10.29759950030001  -12.23682584098921   -5.25079330140923
C         -11.29999212122383  -13.18139707673116   -5.13531649497718
C         -11.20202119957717  -14.15103572458108   -6.13311944731893
C         -10.12315369772366  -13.94965311254897   -7.02278548557360
S          -9.22552988882793  -12.53617454658908   -6.61499913567411
C         -10.14838660101367  -15.00331897802505   -7.93533550075302
C         -11.24160800150985  -15.82615189779515   -7.57975392315978
N         -11.87284081827690  -15.29036278403233   -6.48854417294302
C         -11.38982982949693  -16.94967697424849   -8.39101012839404
C         -10.41829329873374  -17.00105368824314   -9.37390547152742
S          -9.30830971066125  -15.63315658356204   -9.29933007316670
C         -10.20835048231158  -17.98474761153071  -10.37292689205228
C         -10.94893341352535  -19.11298255530953  -10.49995363354160
C         -10.74195934247986  -20.11486995876457  -11.47781111669188
S          -9.49106101361324  -19.97570388263074  -12.67742969141685
C          -9.88557648685653  -21.47485316484952  -13.38528114109711
C         -10.93969582994754  -22.09304292681290  -12.74697037076040
C         -11.44012066676152  -21.31514760127876  -11.64691312725825
C         -12.53052294746711  -21.83972693221252  -10.89839712523413
C         -13.10611413710872  -21.16597918093074   -9.80087332291558
N         -13.62032845330757  -20.67404303044219   -8.89917570085667
C         -13.06906319549603  -23.06234544418694  -11.24234859399476
C         -12.56478712983691  -23.80813167262648  -12.32203366454907
C         -11.52155373169287  -23.34185008287781  -13.06654775215007
H           0.19203196154344    1.10835211517143    2.33602184771100
H          -1.89576152209374    0.44806729033446    6.84345400267749
H          -3.66074696667920   -1.19097337889512    6.34703719940085
H          -4.00062569924278   -2.04200056740703    4.08318958453592
H          -2.32159963144445   -2.06058390020158   -0.80178215314829
H          -3.86818292073717   -3.99363831895112   -2.63308683764392
H          -6.04091568815048   -6.07711282543551   -3.23119146681748
H          -8.83377697744003   -7.61010718901542   -0.93637587018225
H          -7.40192299735605   -7.87126142448929   -3.63232995145756
H         -10.79107090815382   -8.41973596167136   -0.81194904143772
H         -13.48703130184724   -8.09038162690441    2.28933135750118
H         -13.89069999538222   -9.83543609840213    2.21920737020034
H         -14.81343564910143   -8.67885146420316    1.23893892450037
H         -12.04472046148048  -13.15818941040470   -4.36218411257862
H         -12.67575968405984  -15.67469403871097   -6.02193192610481
H         -12.15747973662046  -17.69198533739986   -8.27547430853754
H          -9.38885164514479  -17.80613096190538  -11.05743168700791
H         -11.75891223666658  -19.29141787202111   -9.81078131227426
H          -9.33066092218690  -21.83181017959173  -14.22942065288379
H         -13.89623007658756  -23.45239053230881  -10.66748810173754
H         -13.01896935769287  -24.75975450919228  -12.55268217028142
H         -11.12632127778270  -23.90594748566247  -13.89758712233283
