103
 SCF done       -220.672425355409          0.000644133057
C          -0.91887996923409    4.39666613658156    0.70448960974797
O          -0.94827164412439    3.19124527313700    0.69044453014398
C           0.13689926670764    5.27130180169945    1.25019397050714
C          -0.22707975213573    6.62315246467844    1.10923074909768
C           0.62329944587179    7.62946178359549    1.53691433390746
C           1.84434855800339    7.26637064645999    2.08297572311532
C           2.23185598420587    5.93173584985836    2.20592541008076
C           1.36591758424988    4.92390281885155    1.78546281984964
F           1.75063430196725    3.65245950455153    1.86963204273757
F           3.42689920052011    5.62038734249412    2.70954634394247
F           2.67931241447865    8.21583748841564    2.49830067745129
C          -1.51501996770805    6.69791747326451    0.42896990142654
C          -2.14053515336727    7.83967846616688    0.02157914671687
C          -1.67065020722633    9.14690638287169    0.28841037233828
N          -1.36191771757200   10.23346406243819    0.48350940787272
C          -3.33015394076950    7.88549574588452   -0.74219788808920
N          -4.27168373347273    8.00950644573126   -1.38529967518699
C          -1.97121186308002    5.33044697062483    0.19556060844467
C          -3.17995623487821    4.94081016687562   -0.26354650401919
C          -3.63293016118878    3.59342942991174   -0.49528653820307
N          -4.81216398557437    3.23371040225462   -0.03790354708579
C          -4.96971593328703    1.93552171707852   -0.39180469225803
C          -3.81896829598809    1.45717486642874   -1.17193388159615
C          -4.00641038605449    0.04643595680443   -1.53555573007267
O          -3.26185510459866   -0.68942960718733   -2.15557557379298
C          -5.31219399641824   -0.27922979917394   -0.93571446653967
C          -5.86428759817529    0.91009726605645   -0.24239034572587
N          -7.06063810678433    0.61546474259384    0.32676154072053
C          -7.27523436830645   -0.64193095763607    0.04434601993246
C          -6.22051192306877   -1.26480085887978   -0.74516402112109
C          -2.94757546593220    2.51822580208372   -1.25596921594040
C          -1.69258419396304    2.64855624683685   -1.90895163276404
C          -1.09543177876029    1.58808584048780   -2.50870564411889
C           0.19539012165259    1.53309965447922   -3.09114732758594
S           0.55972611273870    0.14835175925917   -4.07125023258267
C           2.20140377717705    0.68166484698425   -4.32433364844612
C           2.42687482486893    1.88663767209260   -3.66239559292997
C           1.31104929472162    2.35874151786386   -2.96715358850998
C           1.35557957458125    3.58150213494080   -2.11904870234373
C           2.78055624514462    4.05073863570132   -1.82555404704390
C           2.70988595041942    5.45243381788522   -1.21555476909237
O           1.66164382158581    6.01025141978874   -1.00625000625674
O           3.86279479655836    6.00652011010685   -0.88063879501770
C           3.64762722216289    4.00922064316324   -3.09400708173881
O           4.93617007887250    4.50149908291127   -2.76405325018371
C           3.75306587197316    2.56925745400479   -3.61137786905381
C           3.12048424761273   -0.13335299936573   -5.01908675287906
C           2.80249282777961   -1.40781596717481   -5.37039803366801
C           3.68787704963344   -2.37997300122716   -5.88110930957913
N           4.85380412209591   -2.12847811267939   -6.45996098369660
C           5.40784201413061   -3.32798340210666   -6.70971270880373
C           4.55716038448218   -4.42833399792016   -6.22293408148873
C           5.20541595801322   -5.73417442028349   -6.44880082895717
O           4.79278493096400   -6.83275845627675   -6.15053920048777
C           6.46567710402690   -5.35086308820366   -7.10399683177234
C           6.55160628739477   -3.87904024575756   -7.24140122801895
N           7.72093672884985   -3.52149931921698   -7.81909591119429
C           8.35328828673414   -4.65046712968888   -8.04293482925251
C           7.63005621877502   -5.82873724582620   -7.61628118292182
C           3.44365568211382   -3.83738683861372   -5.69611702191954
C           2.38275720121095   -4.33522919788967   -4.89227044323740
C           2.35241934985321   -5.53883342723885   -4.27468462548107
C           1.36137513920304   -5.83834117494715   -3.29712002727487
C           0.76992138569159   -4.96542717222462   -2.43255865528258
C          -0.49841854341271   -5.36480396114925   -1.75799243608994
O          -0.98179065029642   -6.46710451753841   -1.72797033555320
C          -1.03398128151565   -4.10875992218497   -1.17663993820619
C          -0.11168303698865   -3.06416621086850   -1.37069280391115
C           1.07176799011376   -3.59823415589011   -2.04793969877220
C           2.28795583261011   -2.96697851677375   -2.07557910234393
C           2.51052320059403   -1.62448609043692   -1.70941334473703
N           2.76597543340425   -0.52390935619592   -1.50113664288986
C           3.50774088313472   -3.57498585942150   -2.44658472831130
N           4.55261232789851   -3.99675079261023   -2.66136211288561
C          -0.36789972847134   -1.79356520930980   -0.88213955488194
C          -1.55120788570656   -1.58673224996172   -0.19103035511177
C          -2.48019913835220   -2.60772896623889    0.00110635350288
C          -2.22349574411472   -3.88212951976803   -0.50472874708817
F          -3.11416488849965   -4.84938861821333   -0.31699086962417
F          -3.60770226084056   -2.36808121310110    0.67675653134537
F          -1.80729509857025   -0.38339374338221    0.32190085019337
H           0.38764002795733    8.67675568791274    1.44577244257279
H          -3.95667426534094    5.68117280919015   -0.41765315812672
H          -8.16756248416658   -1.13406177929763    0.39016788379086
H          -6.21079437478280   -2.28617010071153   -1.07043770911781
H          -1.24295122097659    3.62821504997895   -1.91174160767369
H          -1.64806811908696    0.65725528367510   -2.55319578987135
H           0.84954242807400    3.37746969876673   -1.17378692565440
H           0.81959694753904    4.39959780156830   -2.61240663094090
H           3.24854548630629    3.39470617819898   -1.08180876299918
H           4.61740685505077    5.51775057290404   -1.26509759238131
H           3.18718222969739    4.65075692462956   -3.86224992509836
H           5.50854663519896    4.45435943627798   -3.53710238007159
H           4.40568601519976    2.01030728601078   -2.93167433029402
H           4.22059916798626    2.56584346553347   -4.59958387449739
H           4.12147270994003    0.23128877936574   -5.19464254891135
H           1.79703161908611   -1.74277254915534   -5.14984334055158
H           9.32534121595036   -4.64430469155360   -8.50481566206374
H           7.97558717521770   -6.83958665903992   -7.70469937165722
H           1.56744874359939   -3.65077952611375   -4.69201282562884
H           3.06753000222325   -6.30663660777414   -4.53988315063032
H           1.00063714350108   -6.86073656569098   -3.24221162871573
H           0.30826076417513   -0.96491301611285   -1.00945246058176
