108
 SCF done       -217.807112234796          0.000922299475
C          -3.38389200204715   -1.30004711892227    3.06035079395020
O          -3.69296159889591   -0.16469027050335    3.33232954037823
C          -3.59418541398522   -2.51698052443293    3.88234976896563
C          -2.70948768775614   -3.52714173600906    3.46307097964269
C          -2.70128505128539   -4.76138889933515    4.09460698176465
C          -3.59160417596686   -4.96717513520876    5.13630704210436
C          -4.47962897029203   -3.97750751443945    5.55837722452141
C          -4.47427776105359   -2.73398415214403    4.92799674076673
F          -5.33260074798256   -1.79601544162849    5.32235086678376
F          -5.33287746461835   -4.22183555937213    6.55687799068733
F          -3.60832856903118   -6.15013348934041    5.75465781836229
C          -1.92686277237557   -3.03766193973957    2.32879475893078
C          -0.89236809882121   -3.69829352179238    1.72476843419576
C          -0.41439496641177   -4.96475431630667    2.12619348507478
N           0.02107482867687   -5.98812592525162    2.40713145701641
C          -0.13882729696861   -3.18910786564009    0.64467528813159
N           0.51232648044357   -2.83141932988060   -0.22977676651197
C          -2.46993412462170   -1.74361080556501    1.96036575266770
C          -2.23299618502115   -1.01626879840933    0.83842006477661
C          -3.05863629272597    0.06963209172349    0.43225716473417
C          -2.66943488778070    1.21473323030858   -0.39329531143112
N          -3.64860113661785    2.02868729753131   -0.67037044930431
C          -4.75435210872982    1.49087006264630   -0.08731741273154
C          -4.41092558246880    0.25346050371477    0.62488401935402
C          -5.60423149256573   -0.37303636870462    1.13195270584392
S          -5.69403072074067   -1.90916464562823    1.72963811724031
C          -6.65798600593143    0.55992724000033    0.84241036029461
C          -6.10768427911804    1.68191132042097    0.05288000098915
N          -7.08740131137385    2.56346765599881   -0.27755796513625
C          -8.18197944128064    2.07595186243863    0.23518355516440
C          -8.00861170671035    0.81922927945129    0.96538228513933
C          -9.04604052812254    0.14669992789203    1.69628928706834
C         -10.37661128811725    0.35218816746125    1.37359127981147
C         -11.38460711202987   -0.28251023335306    2.11523681548673
C         -12.77715587839714   -0.22498538943142    2.01885070878935
C         -13.61197369931308    0.51791548844210    1.03886538749786
C         -13.36880447104534    2.04228618618351    1.12383707179809
N         -14.57099789979781    2.72767949170897    0.70865461271612
C         -13.39206512557761   -0.01138320070731   -0.39233733816566
N         -14.33528253845472    0.60934656086255   -1.30837257451725
C         -13.29892766870110   -1.03312818727359    3.09535179034686
C         -14.56383923802844   -1.25003958685228    3.50522255165182
C         -14.85844140592277   -2.10827723001011    4.68746404728092
C         -13.66086443232196   -2.73892038642015    5.31511483439075
C         -12.39982775681132   -2.48619579998013    4.91186528107804
C         -12.16634433307008   -1.62072010332413    3.81908189629781
C         -11.00854692608072   -1.14912883719368    3.22186408185784
C          -9.64488707683781   -1.34523310932582    3.52548961121441
C          -8.69744209024137   -0.71392945558742    2.78279561133250
C         -15.92475013620932   -3.10348655640684    4.29682430795160
C         -15.66072340657118   -4.37448920555488    3.97927437477869
C         -16.64954339352125   -5.33619726938583    3.59885785057775
C         -18.10814316758522   -5.18634532104072    3.59872728534474
N         -18.75895996044233   -6.24671912641538    3.20883960631479
C         -17.80669753817660   -7.17668483277351    2.92364006538390
C         -16.46051792408355   -6.62451048178420    3.15922105070740
C         -15.45848278234475   -7.61489643198133    2.85934768004840
S         -13.82519849563751   -7.46711602012715    2.94953611592263
C         -16.21935938024959   -8.76637961050747    2.44385033683148
C         -17.65896466660953   -8.47399880336418    2.49773651805907
N         -18.38136123924652   -9.56155138721656    2.11225295262705
C         -17.51172773280761  -10.49893225893963    1.87670756828575
C         -16.11435590179856  -10.08648359020393    2.06229989831552
C         -14.95580249381037  -10.86222100711512    1.80323152162101
C         -14.83716911155089  -12.21411971778471    1.87704324565079
C         -13.72466162630915  -12.90952603367569    1.17081162203589
O         -12.74344291507574  -12.40424967402071    0.69200454395522
C         -14.13662564961886  -14.33664368352669    1.14523740677582
C         -15.31996058065583  -14.50567362620666    1.88961873172416
C         -15.69452811449651  -13.21692928033157    2.47217069785003
C         -16.52661715193553  -13.03458193537247    3.54319757702233
C         -17.28821496323019  -14.06579062298035    4.13342708055511
N         -17.93590266238796  -14.87162181719381    4.62973566950033
C         -16.63648582286746  -11.81264692143186    4.24406445419422
N         -16.70212132002152  -10.86594492663855    4.88891860283182
C         -15.92340756905400  -15.74717476520887    1.99182443386901
C         -15.32511852771749  -16.81672987267039    1.34121832564024
C         -14.14830348899470  -16.67132368785324    0.60746106499589
C         -13.54594037669204  -15.41466849869800    0.50792835948062
F         -12.42907410361534  -15.28047999781604   -0.19625597582952
F         -13.60286824972028  -17.72614458435383    0.00027301313621
F         -15.89215723884873  -18.02093606987565    1.41449562687502
H          -2.04253513407040   -5.56410562885919    3.80729062753323
H          -1.42864821362357   -1.28476990490865    0.16607577753890
H          -1.67094625229707    1.41346286397536   -0.74116675394049
H          -9.10575844444437    2.61885023224770    0.13649174067342
H         -10.63911698125803    0.98666153496808    0.54250640625076
H         -14.66732304487446    0.36779585244984    1.28623075724841
H         -12.48443174425071    2.30067576311111    0.52153982237081
H         -13.16013258452466    2.31571155577857    2.16366091958389
H         -14.76570980988232    2.49715050084250   -0.26147345508846
H         -14.47321352729279    3.73153945517773    0.80120907948132
H         -13.46800822916997   -1.11201187599278   -0.36898069379028
H         -12.38477198876768    0.24191572755031   -0.73010220144289
H         -15.27829798457577    0.28870481251280   -1.11100645620372
H         -14.11735593630120    0.35462803968894   -2.26548723519624
H         -15.41407261079058   -0.81076668282324    3.00176554343881
H         -15.31549017766550   -1.45039555718333    5.44665006841727
H         -13.85911658173289   -3.40384719954259    6.14168701308634
H         -11.55821861865757   -2.94167151936758    5.41138107743107
H          -9.36442662678989   -1.98080364456591    4.35114077481539
H          -7.65379872544699   -0.83648905751256    3.02115696336739
H         -16.93270824804447   -2.71718092685980    4.24979897331767
H         -14.64078651071770   -4.73692467738764    3.99823976171831
H         -18.64950553518256   -4.30448445054529    3.89252230276584
H         -17.83127944082171  -11.46185991193882    1.51716039597039
H         -14.08482979065642  -10.32604297716310    1.43805472153493
H         -16.83440355391103  -15.91323619434830    2.54316220731566
