91
 SCF done       -196.028233459916          0.000986324573
C         -11.83101445327534    0.68325820220670   -3.95296293234244
O         -10.63114100184728    0.80261851029565   -3.97814184708717
C         -12.62289523306128   -0.56996561831877   -3.90567935524646
C         -13.96236536762564   -0.30175449880650   -4.23944578509470
C         -14.90872228585247   -1.31471560659658   -4.22358726664339
C         -14.49438026653170   -2.58502379961129   -3.85632722142187
C         -13.16689552587957   -2.86799129337761   -3.53790301334887
C         -12.21197541429115   -1.85244614710481   -3.58561492186337
F         -10.94458542060199   -2.12657628427230   -3.30815534016797
F         -12.81867104140165   -4.10529140495100   -3.17104563946923
F         -15.39102465650188   -3.57317385808118   -3.79945432759694
C         -14.10570329057910    1.12312924269640   -4.53502996325920
C         -15.23585652548240    1.73365870991111   -5.00502333709068
C         -16.44476648734588    1.06096335095643   -5.28910360976771
N         -17.45158289084007    0.57228551456890   -5.54015692137412
C         -15.33874541059569    3.11123951985049   -5.29830629662032
N         -15.48589890449093    4.22003774808140   -5.55416172158661
C         -12.84502106689693    1.75876604532138   -4.20261653777868
C         -12.54872047593308    3.08337094551772   -4.14149107575051
C         -11.40629972059019    3.57655940140743   -3.45143852930046
C         -10.67063385004629    4.82003251907213   -3.70825013793400
N          -9.74882329280978    5.08325714457422   -2.82923173987709
C          -9.81147189075131    4.07620626821809   -1.91274486459565
C         -10.82163715776911    3.08396677265460   -2.30516464040233
C         -10.99053975824928    2.10481827248163   -1.26115990001278
S         -12.14036946150676    0.92004476015069   -1.23496260868639
C         -10.05468176910918    2.49531460602885   -0.24566131052901
C          -9.33591493612887    3.70832252161431   -0.68031210257801
N          -8.46738122415448    4.12196277466545    0.28215445459013
C          -8.62468298200571    3.30330099013704    1.27752232407269
C          -9.63282364636129    2.25506918089401    1.05232932575350
C         -10.01322016077540    1.23545251189255    1.95909793153162
S         -10.78939730070501   -0.19120871382189    1.34869940702262
C         -10.90966696804854   -0.86713746063048    2.94012468316681
C         -10.36937684602642   -0.00437872972456    3.89986333410891
C          -9.85527334685090    1.17043692889128    3.34842832230689
C          -9.23213309209770    2.23728474091276    4.19279826802270
C          -9.58134748390915    2.04811587538962    5.66525259378099
C          -9.31161614410246    0.60630698763966    6.08986264926873
O          -9.46178792251290    0.53841410464463    7.49022878101948
C          -8.95885540159315   -0.63009710048818    8.08968661749835
C         -10.29883275871817   -0.31833074124950    5.35942550344817
C         -11.50262037952137   -2.14305528950248    3.10783759049403
C         -12.13173674467138   -2.67915072201467    4.32737726952189
N         -12.60458175287514   -3.88088569437921    4.20338940847789
C         -12.33079120210079   -4.25785006347635    2.92198307155372
C         -11.68375189550213   -3.15809696838042    2.18629718108736
C         -11.33926231627000   -3.59412749808688    0.86024837173881
S         -10.53172426331443   -2.79215079567834   -0.32478520724001
C         -11.79121229570512   -4.96567429257574    0.81059261163079
C         -12.40311663487606   -5.34655099729932    2.09311321928261
N         -12.78979365709389   -6.65242161338016    2.06797811037416
C         -12.40166831536742   -7.11293581430462    0.91770985165191
C         -11.73267337974827   -6.11721925356690    0.06312022696597
C         -11.21548784635231   -6.33366349722926   -1.24385697446287
C         -10.68310707583636   -7.48763544251823   -1.71697754019232
C         -10.54475718509413   -7.71487486130704   -3.18652543725723
O         -10.62015348965881   -6.89135305111941   -4.05740203538990
C         -10.34543896972791   -9.18206563974083   -3.31273388271900
C         -10.22377860309304   -9.76198939934757   -2.03499437483661
C         -10.28087033755226   -8.69944881898062   -1.03179034341804
C          -9.81796970753973   -8.78244828936162    0.25287863931855
C          -9.37916863057727   -9.98170142064181    0.85516467262340
N          -9.03652666284732  -10.93749631528270    1.38802599850453
C          -9.62294769108072   -7.65715039991247    1.08511635839457
N          -9.37225098923954   -6.77281743426362    1.77166125460378
C         -10.05790462978874  -11.12849294103607   -1.88797560738221
C         -10.01138653125884  -11.90540904550330   -3.03652005346804
C         -10.11821269435466  -11.34865405349330   -4.31090057518348
C         -10.28794423234547   -9.96890470122562   -4.45085696387542
F         -10.39372159633286   -9.44428526949024   -5.66465313918801
F         -10.06123966966379  -12.12978540333447   -5.38954884151130
F          -9.86213133708485  -13.22462865150846   -2.92202353203165
H         -15.94579904502037   -1.15578883808457   -4.46846507827782
H         -13.22099214674395    3.82497487571370   -4.55280154014111
H         -10.82886405639816    5.46663860338249   -4.55355939549015
H          -8.00196578587665    3.39596371006878    2.14734588773137
H          -9.56454972106023    3.22195882170388    3.85843573376557
H          -8.14436646250754    2.18985567925753    4.07714187255879
H         -10.63400684960853    2.27232945715694    5.84147621724604
H          -8.98773164738303    2.72075879821961    6.28344774716401
H          -8.27957576244490    0.32759481174236    5.81455981523844
H          -9.00977377896189   -0.46444822738742    9.16380432321439
H          -7.91666240277354   -0.80789969598482    7.79850893530343
H          -9.55363327287499   -1.51451006172810    7.83632884992128
H         -11.28122930938148   -0.16653521257633    5.81861672520557
H         -10.01548320856326   -1.36406011504305    5.49737253224751
H         -12.26889363070692   -2.14350667259643    5.24831956878714
H         -12.63117562684047   -8.12337056444912    0.62619268364176
H         -11.30627524350695   -5.51837089938942   -1.95270706446363
H          -9.97336849867141  -11.60957372493462   -0.92724838964177
