110
 SCF done       -181.112302605970          0.001697742071
S          -5.05802994222615   -9.29356750046466    4.64829286838219
C          -4.70800504401047  -11.01487956443627    4.74653859466064
C          -5.64373778959004  -11.98589016087242    4.56881884001247
S          -4.99559961352652  -13.56765424949992    4.77024712210763
C          -3.43823583292374  -12.92377874019236    5.08426860900224
C          -3.42128443200528  -11.56462659319448    5.03685928949132
S          -1.93237949804513  -10.62564843661001    5.25226787632933
C          -2.07811841509822   -9.68401276721485    3.80425914153612
C          -1.32202478727880   -8.63205938356634    3.43984758153870
C          -1.63420205014569   -7.86131560297973    2.28156917884713
C          -1.33147331952797   -6.54420739944706    2.07316683286025
C          -2.15444173736266   -6.05660580880779    0.99853296946956
C          -2.11158712724708   -4.75373597977107    0.48864111069953
N          -2.08055682907350   -3.68095902588952    0.07836279556884
C          -2.99794976504799   -7.06295553397991    0.56907837759512
C          -2.65155069748001   -8.24623173064121    1.27178501120725
C          -3.03701413042845   -9.53132091506248    0.93982256662840
C          -4.29732719238704   -9.94777661145339    0.29887236584515
C          -4.14443930047248  -11.25588631869837   -0.09102261419415
C          -2.84190925990522  -11.70436147110017    0.31188713093925
C          -2.19651749077262  -10.68293395559059    0.97834429042435
C          -2.33374290520594  -12.98840698506921    0.08174614592332
N          -1.92805599457856  -14.04777725208920   -0.09822925855700
C          -5.53222834371162   -9.24544863987265    0.34669867521131
C          -5.80845326879176   -8.25112325598345    1.22617120511154
C          -7.06937355755379   -7.60198679624075    1.41731670210323
C          -7.23426918690496   -6.81660637721102    2.55202817870903
C          -8.46336675507142   -6.20814742203051    2.81798976051713
C          -8.88601993244529   -5.41712052952926    3.90277952357455
C          -8.05625841545711   -5.24299929226660    5.13050239871266
C          -8.62322352763644   -4.34533364612450    6.23683687291664
N          -9.75359025828646   -4.97157021371413    6.90445188877247
C          -7.71347153791231   -6.61490987302616    5.78064476133827
N          -6.47215525991878   -6.49377669487847    6.51708151235840
C         -10.21097627000337   -4.96547909062013    3.58050649202985
C         -11.03921333732398   -4.04019044863469    4.13175693398440
C         -12.44848344590699   -3.90490131224227    3.68060408576619
C         -12.76201998539579   -4.53439718153990    2.37193296219901
C         -11.88456912004992   -5.34205526268046    1.74526906974000
C         -10.61603836507502   -5.59993035636415    2.31565498958532
C          -9.53811806257321   -6.34135198586614    1.85847889200562
C          -9.35024028462371   -7.12831065683889    0.70328141198475
C          -8.15593401514463   -7.74670517328381    0.50211551838620
C         -13.06873699513553   -4.65803807923153    4.85725001356549
C         -13.05510133214961   -5.99490614204718    4.93407293674064
C         -13.55101601545367   -6.77548141876913    6.02572857961833
C         -14.44426868147722   -6.40539937420488    6.99716986828807
C         -14.73444576348245   -7.55410365859625    7.81274524087417
C         -15.59565641756964   -7.55708104617020    8.91422177514830
N         -16.32920047115238   -7.57310025216965    9.79886578150252
C         -14.05061867867372   -8.64146082886063    7.31036576153008
C         -13.27892432486750   -8.20466105857867    6.19357793005937
C         -12.36231254538319   -8.97447346586996    5.48824442747434
C         -12.36412301423830  -10.44727740966993    5.36789811594781
C         -11.15875918436983  -10.81800073758318    4.83337293820737
C         -10.39851799109312   -9.63209500564731    4.56797937203446
C         -11.14707460024078   -8.51900401232746    4.92158588551914
C          -9.10447793272556   -9.64157593192434    4.06424924388212
N          -8.02702642479175   -9.69095225001352    3.65673836565494
C         -13.45452311080899  -11.33902625225785    5.58880626199042
C         -14.75546776140083  -10.99865997160181    5.62981336480211
S         -16.00705394507357  -12.18886248897107    5.84759854809157
C         -17.42038212844651  -11.15738203014702    6.06121055711681
C         -17.45360125757216   -9.99122700142058    6.76154618508881
S         -19.02139676667231   -9.29531202955297    6.77915294132276
C         -19.65071975375627  -10.59250416429881    5.83756747812128
C         -18.69917323745597  -11.51742504284273    5.53852758857838
S         -18.92318983383459  -12.97204074921658    4.57348163353956
C         -20.59109051272956  -13.37972312025464    4.96631440748175
C         -21.31967011807268  -14.19718670285067    4.22653438073510
H          -6.32299187704832   -9.44930502252168    4.22050238152814
H          -6.68036388974537  -11.85210500830736    4.33148870099243
H          -2.61176653652469  -13.57600768201642    5.28442939678364
H          -2.90191396000779  -10.00173638529933    3.18787685829130
H          -0.53807033899691   -8.26485314843334    4.08714728816869
H          -0.64866439925468   -5.93820352159199    2.63828379239236
H          -3.68655978382327   -7.00636682097339   -0.25253899702884
H          -4.88162673562367  -11.87774722934331   -0.56389225475364
H          -1.18714333627327  -10.70056841903681    1.34400785781990
H          -6.31565480674171   -9.64823223784412   -0.28203366958788
H          -5.03428637817324   -7.95393080688622    1.92179525429180
H          -6.39868555153086   -6.67791913846518    3.22229813230328
H          -7.10024830774040   -4.80483512209565    4.81459117323842
H          -8.83434973675343   -3.34300903410431    5.82617342869475
H          -7.83745636211348   -4.23809677257878    6.98894469248739
H         -10.53602519680721   -5.11235827913704    6.27564243533383
H         -10.06523741324560   -4.40500666970662    7.68370646964099
H          -7.69011961348055   -7.39587863252567    5.00863382584908
H          -8.51240191184665   -6.84794316517316    6.48724517481371
H          -5.67216726255073   -6.54685405266335    5.89548427938249
H          -6.38171555758981   -7.23107107306010    7.20406715714257
H         -10.75141961184903   -3.41541237735694    4.96237408807736
H         -12.79426760257830   -2.86829114085921    3.70474426055937
H         -13.74036232713475   -4.33693027807970    1.96262322354628
H         -12.12862596174584   -5.79422326729296    0.79505031674900
H         -10.15492285129999   -7.23234687595833   -0.00978122421201
H          -8.00942048382125   -8.34547652640534   -0.38322177523333
H         -13.43294717318886   -4.05023022895662    5.67131438652858
H         -12.63862958237591   -6.55497078816231    4.10695908655580
H         -14.89553154859069   -5.44077428010939    7.13430726538653
H         -14.00677554727041   -9.61982726352415    7.75030601393104
H         -10.83600348458060  -11.81529129513216    4.60054931801167
H         -10.78839272227128   -7.50747890428658    4.91221895881584
H         -13.19557391050774  -12.38876661782767    5.64871881884536
H         -15.10575469734797   -9.99005903649397    5.48791686507831
H         -16.65726879127348   -9.50687361436675    7.28960164022807
H         -20.68305874111061  -10.58575661681290    5.55150823273382
H         -20.94060301653231  -12.94112966500020    5.88758937437745
H         -20.94062404194721  -14.62669049061041    3.31551514139210
H         -22.31941407044485  -14.46772608883430    4.51785438451777
