108
 SCF done       -210.555155607534          0.000302768891
C          -0.92028303226479    0.75088621608357   -3.47541315016814
S           0.24795791574331    1.65175508699594   -2.61613072938721
C          -0.39751184925806    3.15832818076572   -3.22756552363016
C          -1.49290075809398    2.92181125246067   -4.04286371785681
C          -1.77901585014980    1.54505333392124   -4.18106665023754
C          -2.91921285620385    1.00980599652812   -4.99435607661863
C          -3.48070491277594    2.07081653896400   -5.94460992453806
C          -2.59911493062065    2.19580271580940   -7.18228751189493
F          -1.29109782870508    2.32842601076084   -6.93185465751171
F          -2.71583374015658    1.10673789874509   -7.96417758187934
F          -2.94538287731677    3.24496682337989   -7.94719372677345
C          -3.65025795059714    3.40506103995358   -5.21403317661713
C          -2.31803211132248    3.96931293070636   -4.72037105541390
C           0.25704816603187    4.34940720957350   -2.81598725680650
C           0.11266541783391    5.59905479247270   -3.32889136892345
C           0.80622842064893    6.73704758528065   -2.84362796369823
C           1.66471845360291    6.84957349629352   -1.77011959971254
C           2.11586751427359    8.19231979769758   -1.67057913024700
C           1.46171950652184    8.90203879213771   -2.77624831499111
C           0.68608786571547    8.05796758256600   -3.47041463383575
F           1.63435913395386   10.20792443499322   -3.02243148494367
C           2.97764856304201    8.73825486743152   -0.74284059442658
C           3.44142890029185   10.07837006008076   -0.64516476680455
C           4.28673432007755   10.19093182736458    0.44286595010156
C           4.38072863828183    8.87649575340879    1.08284630731518
C           3.61173476607199    8.03584424494084    0.37420881586362
F           3.42560141297525    6.73311531153337    0.63012675487731
C           4.94430229517779   11.36866659079207    0.85399725210573
C           5.75553154209532   11.46139280184912    1.94713514064868
C           6.40773510136342   12.66095633269091    2.31284548735984
O           6.24204369958614   13.75177057106707    1.54526245646777
C           6.95975608591898   14.77636287653833    2.05919481243607
C           7.62288895484589   14.33639858991076    3.22374913377229
C           7.26576999055422   12.97781345268382    3.38353323582114
C           7.69417725079066   12.03927344363321    4.45538376710570
F           7.18889892376477   10.80700123245485    4.33339817916899
F           9.03353951359212   11.87052602355979    4.50282881604369
F           7.33346031063382   12.44973714458266    5.69065132054220
O           8.39507085363704   15.18706886545309    3.90895848333441
C           9.06845136190174   14.80873994968304    5.09520339720078
C           6.94063929801615   16.01881688856476    1.39509177329474
C           7.64710698300468   17.12031789837616    1.77939080870381
C           7.64826588926533   18.35866850884796    1.10654245395374
C           8.40521564319700   19.45836245232556    1.47021662812009
C           8.16966161210208   20.51679657756341    0.55608140218072
C           7.19352616343733   19.98286589364755   -0.39716285646114
C           6.88017959784527   18.71497174761602   -0.08904808736253
F           6.70438175296427   20.68782603353626   -1.42743994733551
C           8.74098538127564   21.77328069829735    0.53492127429429
C           8.52491713526116   22.82916339743165   -0.38776536238465
C           9.33470500675628   23.89713742376473   -0.05410319724993
C          10.10495693222884   23.52748116788562    1.13676652425900
C           9.74375837380224   22.28220518645686    1.47644718522524
F          10.21530814343895   21.57608070243266    2.51393815699070
C           9.48363779417299   25.15559585789124   -0.68691270220621
C           8.75589363683575   25.55488034186880   -1.76510834539840
C           8.83560831555585   26.77165731086873   -2.48576216919562
S           7.86498660080745   26.87670356335594   -3.93260914018650
C           8.44846523674617   28.46667582210021   -4.28581653506270
C           9.34984950369417   28.88692425522628   -3.32262516609609
C           9.55696962263871   27.94683832761433   -2.29960331871377
C          10.45580957088565   28.21216504793840   -1.12994407350904
C          10.86027931147143   29.68723291327414   -1.02570578884842
C           9.75606177989046   30.48609671106198   -0.34137051169616
F           8.52733841183901   30.27856414050169   -0.82976894865995
F           9.68829526103799   30.18103532250361    0.96781569134363
F           9.97083740020371   31.81079829147809   -0.40601389658924
C          11.22058821336454   30.25691372441077   -2.39809172286887
C          10.02966171137161   30.22198393671250   -3.35195035444073
C           8.00066505543580   29.19354732878801   -5.43886597664810
C           7.11757651955360   28.73599670004051   -6.32502109840008
H          -0.91751138058919   -0.31973448841393   -3.41989392465780
H          -3.71968499010868    0.69132750348879   -4.32017237998086
H          -2.59640310764148    0.12958021972295   -5.55565693081845
H          -4.45339017448580    1.74116945341001   -6.32693258254300
H          -4.31013755206683    3.23002405124525   -4.36219137654848
H          -4.13157281681093    4.13106132922326   -5.87130070570331
H          -2.51469410772652    4.79052103237215   -4.02731705565683
H          -1.75548016444580    4.37706224450498   -5.56596539928428
H           0.97395560667850    4.21129944387489   -2.01757051277067
H          -0.53699520682138    5.77057445162298   -4.17265058704217
H           1.95650729337420    6.06400012525717   -1.10281593054517
H           0.08342224523040    8.27824155706322   -4.33016806848303
H           3.17405830122072   10.87291084137722   -1.31387705223397
H           4.96146678604620    8.63941552457438    1.95182330062770
H           4.78291777758682   12.25078774942918    0.24907807519899
H           5.91782072847605   10.59663885254215    2.56533737830831
H           9.59748527719422   15.70604473830306    5.41264208970409
H           9.79283893492079   14.01327962632280    4.91292061016099
H           8.36966182063030   14.51054330510227    5.87853635140721
H           6.31528123731421   16.04818181022357    0.51456250780330
H           8.27009028807564   17.05475502061807    2.65873358855329
H           9.07292218887687   19.50292837072488    2.30783766103530
H           6.19538369270641   18.07669855790461   -0.61090119202532
H           7.84435185731634   22.77919787812324   -1.21376089758673
H          10.81636827110288   24.16056419823306    1.63094407814484
H          10.23857736394285   25.79895874244199   -0.26336478210147
H           8.02480902685036   24.85928134673720   -2.15580312167410
H          11.36475874160979   27.61120359942947   -1.23068207266085
H           9.95392357472273   27.91114968282677   -0.20659030881148
H          11.72430927583082   29.77796538785640   -0.35748667269529
H          12.03207051719659   29.64986437477055   -2.80413471026917
H          11.58145069109108   31.28148568676795   -2.29505961329176
H          10.37743402604221   30.44072629872828   -4.36369802624761
H           9.30844032064332   30.99905794850639   -3.08174177183735
H           8.42479319631433   30.18121559305886   -5.55913117802898
H           6.67487542404908   27.75880890936813   -6.22365556707888
H           6.81090699581726   29.32400720466443   -7.17129663291446
