117
 SCF done       -175.265991287980          0.000794707097
C          -1.42431293583839    0.86456419180503   -2.13116595194021
C          -1.11186401940654    1.30673296560551   -0.92726385257850
C           0.01370103049795    2.25848622631427   -0.64097742328927
C           1.20432515565572    1.44875811113634   -0.10403347720293
C           2.34884111199772    2.38349820613933    0.25300474285419
C           1.99674113850184    3.29554275724254    1.43493148733554
C           2.89994791913526    4.53421085803724    1.38214186348145
C           0.54355238877211    3.68860373261237    1.40388369393523
C          -0.03591241401621    4.52110777717547    2.34175098383453
C           0.52116085307974    4.98731020910085    3.57276812943283
C          -0.07290277147152    5.92721018392659    4.32896485559547
N           0.33539805927100    6.41897338442616    5.54212636122078
C           1.54208623822054    5.97282474761893    6.20239732176967
C           2.59842954619755    7.06135226613744    6.04802213143784
O           3.39771689730526    7.07940217864367    5.14988369778962
C           2.43339376349183    8.19923291266157    7.04861154480778
N           1.39388607307718    9.08479922929420    6.57218800236088
C           1.66326040661135   10.32340122885650    6.04415357481037
C           2.86566195689113   10.88879416429486    5.84681537466380
C           3.02812636513677   12.19625671118254    5.29180770007068
S           1.65066370905742   13.14916585144139    4.81648388685541
C           2.67822716525767   14.44097320670081    4.24207594081274
C           2.07235541377969   15.66539393801153    3.80051161194609
S           2.76304735721701   17.20928424513356    4.24424340008787
C           1.48196467491637   18.04617113961325    3.46232448890810
C           0.57045659060885   17.20628940029092    2.90421941531204
C           0.90208136369328   15.84073775330516    3.10449230594302
C           0.03782194502469   14.73283902694583    2.58927393279447
C          -0.85047217167156   15.23583028221211    1.44842358365843
C          -0.05127504332903   15.43619598378215    0.18725876804866
O          -0.19472969373059   16.32056530245479   -0.60821106400233
C          -1.59866429857618   16.50100784525317    1.87419492066137
C          -0.62257745024216   17.65139019344582    2.11755900581479
C           4.00713360097629   14.11606256414563    4.38942406642748
C           4.20285922247306   12.86676511923634    5.02705698327482
C           5.56494729157396   12.36904053880736    5.43251650082600
C           5.57634631465937   11.83151874610511    6.83470752153190
C           6.21275862218618   10.73711074109284    7.20993765316646
C           6.56395750887375   13.53319815847612    5.36214994049395
C           6.47296618136404   14.21388559460616    4.00635564816957
C           5.13723897531302   14.94475343174802    3.83883906159315
C           4.92151283967508   15.24544960336521    2.35198943360159
C           0.06586674808343    8.66041960817824    6.65580983099256
C          -0.93695338496335    9.44060068796114    7.15578548526239
S          -2.48101775290318    8.70661924207944    7.01876422777483
C          -1.78667880594782    7.30368486868081    6.31869324940550
C          -0.43394405876304    7.40484684079371    6.16553156544629
S          -1.67748286074420    4.90851628154361    1.90519587720683
C          -1.59087540826621    3.90036711740398    0.48028508341393
C          -2.69404380159700    3.81190928258042   -0.40963157261877
C          -3.87559290426744    4.43995464971632   -0.23229072272984
C          -4.97698384159601    4.35319609636068   -1.12985690290196
S          -4.90854262815647    3.36562649891168   -2.56838689535348
C          -6.50268770475959    3.83386250186116   -3.00752552943967
C          -7.06391389039602    4.69021529183683   -2.10936287369642
C          -6.19692271739680    4.98768842593437   -1.02976014976600
C          -6.57461518745200    5.93679735394084    0.06596062949028
C          -8.07372539495773    6.23163505573450    0.05938042746204
C          -8.58972319923181    6.51298551248984   -1.36274440590556
C          -7.81230015319777    7.66427522121464   -1.94559409355674
O          -8.08876442273874    8.82146774044831   -1.79773849355401
C          -8.44838869514050    5.25145983272390   -2.21519089992103
C          -0.35078649826868    3.29787747971270    0.38350607182649
H          -2.21417157603210    0.15060631620449   -2.28982135483565
H          -0.91148389424279    1.21090132799078   -3.01413250919676
H          -1.64144358889872    0.94568122489490   -0.05504895949931
H           0.31575832894967    2.74960712345236   -1.57478268101781
H           1.52216441129095    0.73218483552706   -0.86363696355124
H           0.89013252081187    0.88873932675618    0.78010955548087
H           2.57905414176576    3.00052047051473   -0.61898247379661
H           3.24433337096008    1.80834142106743    0.49663254284992
H           2.19144947489597    2.75572424752003    2.37114988203612
H           2.68486265152991    5.10951682514067    0.48380976262012
H           3.94370279300183    4.22772220854021    1.35382630219887
H           2.75563744609303    5.18488239772738    2.23896272041154
H           1.44459671734980    4.51541475444490    3.87014169005463
H          -0.97959557552079    6.39206599490644    3.96701147848969
H           1.88559145257254    5.05002713541143    5.73688107230332
H           1.32969330101450    5.78635818555743    7.26113983361188
H           3.36479158778505    8.75733373239550    7.13621520918846
H           2.15300473021133    7.80658854276412    8.03301926219035
H           0.77247406191360   10.86101776374765    5.74923393032759
H           3.78547544655926   10.37869054779356    6.08054450132236
H           1.48387707865080   19.11785213021737    3.45882629879801
H          -0.59631424137919   14.36522363669580    3.40208534130615
H           0.65546845673228   13.89442034315790    2.25764752604966
H          -1.57492104947194   14.44693555722826    1.20388332504660
H           0.70936293533370   14.64385062465465    0.02641227638865
H          -2.15749513153783   16.28615429136633    2.78752176524095
H          -2.30758749677867   16.79012181489069    1.09733683659491
H          -1.12721964039696   18.47025195859199    2.63527273971997
H          -0.28001471966035   18.03869635982889    1.15384131979510
H           5.89121291070783   11.58173921500327    4.74108046422787
H           5.05409807084536   12.43968521303685    7.56221866436772
H           6.73768834478427   10.11486929389960    6.50265969333914
H           6.23106952868034   10.40980111383073    8.23610796113668
H           7.57179151525818   13.15044395473021    5.53324861253151
H           6.33669509471409   14.25409604438387    6.15109099447900
H           6.57114864382301   13.45781125662959    3.22338097570558
H           7.28958553959678   14.92792312659877    3.88508167307518
H           5.17908234271885   15.89226912034285    4.38906423828888
H           4.80067372685256   14.31645832955906    1.79778882388191
H           5.78441324370489   15.77576833745318    1.95480475703962
H           4.04006812586576   15.85734220990871    2.18812794416534
H          -0.84970242546751   10.42648165210013    7.56596341822179
H          -2.41380044130690    6.48738833476123    6.02155050978901
H          -2.54997016175824    3.19865047290660   -1.28806145920036
H          -4.01982303874914    5.06155079184709    0.64169782669269
H          -6.93578703841952    3.44567263824941   -3.90797589600986
H          -6.01597628245815    6.87053595364374   -0.06133064573204
H          -6.29102985829899    5.52062564171872    1.03591094036969
H          -8.28017853250818    7.09052998318533    0.69992337014687
H          -8.61935242421485    5.37180068381215    0.45488858819882
H          -9.64106223151999    6.81163480816867   -1.29539018237887
H          -6.92374974157576    7.35879913926783   -2.53240398975148
H          -8.68870732834608    5.46470957808893   -3.25956662597102
H          -9.16644189594970    4.50438570941553   -1.86198856188562
