108
 SCF done       -215.128138579253          0.000955109747
C           0.18860820131278   -6.95827504303900   -8.65034452213673
S          -0.32848589665328   -8.35958839232444   -7.78167399002545
C           0.90763819960692   -9.39878301633600   -8.46988162084843
C           1.65770705100304   -8.63549180988522   -9.32542421434263
C           1.25434173525951   -7.28051875304486   -9.42412363301563
O           2.09237660186754   -6.66483274872042  -10.30233668634010
C           2.97140644530956   -7.60789404841796  -10.71893816483612
S           4.16372129474158   -7.33305129642804  -11.76539792309404
O           2.72928775449070   -8.80881944714810  -10.14122687824713
C           1.03995969275282  -10.78573707760087   -8.17235335787010
C           0.26812163157455  -11.43500208626209   -7.28510737865996
C           0.39299149643890  -12.83128104588363   -6.93768504252803
C           0.22144374224677  -13.23069865025320   -5.60564149918781
C          -0.12869101658488  -12.40804535800051   -4.42464392003665
O          -0.34740731013265  -11.22336464445896   -4.36931778252092
N          -0.16326244670513  -13.29497928969674   -3.34453662169275
C           0.14563570802941  -14.60816501325809   -3.72622617208005
O           0.18376611556252  -15.54852269048662   -2.97679403405140
C           0.39313928345556  -14.55157339792259   -5.18236502189434
C           0.74104868449852  -15.56054071241882   -6.05903182351987
C           0.85969810652220  -15.19300231527843   -7.39460825551876
C           0.67720744724291  -13.87988494737421   -7.84094734664048
C           0.68574004197730  -13.75727196591363   -9.31085701854340
O           0.42446883611594  -12.80963326966521   -9.99103242005679
S           1.09628234306196  -15.35608983064121  -10.03709552241320
C           1.16111186925820  -16.17991070328739   -8.44885633689022
O           1.40512986202117  -17.34053404935375   -8.30854505267305
C          -0.47025184427976  -13.01018937947448   -2.01659709324256
C          -0.77734855744709  -11.80435389035974   -1.52710692775788
C          -1.10557319464681  -11.51986844974745   -0.14535212200664
C          -1.06895883841388  -12.46539546617821    0.85720540689784
C          -1.41941666286198  -12.11557045494870    2.17392668249819
C          -1.46593736108045  -12.87619394295877    3.34094251963879
C          -1.04174545115374  -14.29637153387304    3.48742162839839
C           0.13900425656458  -14.42351335212001    4.46922724921883
N           0.70771062532085  -15.75948524915088    4.39081249298380
C          -2.18932002915875  -15.22655383985435    3.91859438185134
N          -3.25172090342717  -15.19589669649925    2.92866955802631
C          -1.92909588771572  -11.99645265665500    4.38881046971497
C          -2.21621353757065  -12.21634643768947    5.68615565248431
C          -2.68070948558887  -11.11780603501058    6.58436509264175
C          -2.74049350884801   -9.77136446764663    5.95141720427444
C          -2.49710386346201   -9.57608026483687    4.63914621242436
C          -2.11382273774770  -10.65835913604554    3.81494820489197
C          -1.81534504056846  -10.74826609625755    2.46272799693870
C          -1.83436636794096   -9.79506383460321    1.42506187744040
C          -1.48828890360439  -10.17748194373500    0.16583218643096
C          -1.79511999759744  -11.17518534405981    7.80901093039552
C          -1.95652111904865  -12.11962624016328    8.72453740865205
C          -1.00951984495787  -12.45439592240177    9.78359276929793
C          -0.40547153673136  -13.71033540826760    9.73964478745165
C          -0.53744758452866  -14.74139230691730    8.69730872537086
O          -1.20673940639231  -14.70158938931487    7.68858586769056
N           0.29607059166316  -15.78503124946423    9.08995860410712
C           0.95405261237666  -15.51025295507923   10.30883430831812
O           1.71884567190827  -16.25895105475728   10.85213755662281
C           0.50597131282958  -14.15668632143380   10.70356232516978
C           0.86051014493089  -13.36110068345871   11.77755685162190
C           0.27321150779105  -12.10042544172800   11.83099250526628
C          -0.63321542175353  -11.64635591961526   10.86229066779191
C          -1.16069162609946  -10.29639160921506   11.10520278122924
O          -1.94624005603330   -9.67568760371718   10.45006280221729
S          -0.42551358884099   -9.65296042203364   12.61819608128318
C           0.54704391734008  -11.13726451023749   12.91066646287215
O           1.28051475163202  -11.27177421378242   13.84370315782925
C           0.51844971171140  -16.97409191513480    8.40557743079575
C           0.01994586504913  -17.25869964126340    7.19362491629527
C           0.28012834878922  -18.48570177335200    6.51418801581276
S          -0.35411223753562  -18.76790459120734    4.90835587430679
C           0.33721586294967  -20.37373352910324    4.76335016337771
C           1.02022629817911  -20.63030817389873    5.92225437062294
C           0.99158607711391  -19.59738426897060    6.88270416696188
O           1.71179055959490  -20.01584493713579    7.96326733452569
C           2.15949317482925  -21.25795211936270    7.66619665746212
S           3.06266658126511  -22.15412054631086    8.65530629505503
O           1.75743437407106  -21.65555530479369    6.43785520608827
C           0.17996867590448  -21.21231942320832    3.61085070060520
C          -0.50038859754396  -20.87027931968819    2.52001429543669
H          -0.31681512168742   -6.02307586623943   -8.53303439822690
H           1.83273224092950  -11.28660169126763   -8.70989426671413
H          -0.45090786563082  -10.87202329443638   -6.70382426264030
H           0.89242754791502  -16.58002570118434   -5.74300068830718
H          -0.43501145972151  -13.90625848273973   -1.41204877412661
H          -0.79980532266758  -10.95794815309786   -2.19719980792629
H          -0.77987046234449  -13.48163197922080    0.64104152515006
H          -0.69239081215830  -14.64686989066880    2.50950463307999
H          -0.21234982276666  -14.27297582586361    5.49203205269383
H           0.86820964550056  -13.62767033283123    4.23966114851208
H           1.08189014508553  -15.92924007377730    3.46240783951512
H           1.47030834415340  -15.85573460269431    5.05234096025022
H          -2.60950176066520  -14.88643502073442    4.86613052812081
H          -1.75255687805937  -16.22675552430560    4.07429365610198
H          -2.92526433443589  -15.57598741478062    2.04620203815485
H          -4.03702021502283  -15.75767397970640    3.23609414273454
H          -2.10606248564833  -13.18471970056553    6.14974123733995
H          -3.69934207752696  -11.38264346697946    6.90980524293454
H          -3.01251984595650   -8.95428743707365    6.60162880118939
H          -2.57823473304081   -8.59036579591725    4.20485442130402
H          -2.12515571341060   -8.77678756494207    1.63600833166390
H          -1.50140308182677   -9.45830594195094   -0.63989639054465
H          -0.96393186312905  -10.48740183358567    7.83778098239797
H          -2.77555781421264  -12.82301259789258    8.63110775049814
H           1.55508067559437  -13.68504715598692   12.53608217630472
H           1.15528561232890  -17.65743387225855    8.95231497725373
H          -0.60182036750544  -16.55802358811179    6.66057973787244
H           0.66933923364800  -22.17413420956175    3.68912880389316
H          -0.98624999102766  -19.91148265600432    2.44475801131656
H          -0.58939462046281  -21.53468947543532    1.67997313546347
