102
 SCF done       -186.598684064984          0.000679186182
C           2.90925879742262   -2.38635718169098    9.27078832482316
S           3.45169234935725   -2.32881619444703    7.63166457543986
C           2.91330529777830   -3.96462619657951    7.25740048152918
C           2.34642399259752   -4.47514223515009    8.39943344435718
C           2.34740175910856   -3.59702094961897    9.51128617036568
O           1.75890066688011   -4.24786835496042   10.55072132787791
C           1.41340785718255   -5.47520492972821   10.08847938756000
S           0.68369677901805   -6.60208052741689   10.97649925085927
O           1.75979953821443   -5.63452112904013    8.78888872642287
C           3.07531559245406   -4.57244291017115    5.98876634916318
C           3.67077301428249   -3.97636731871739    4.92817993219382
C           3.82059214482354   -4.63869938264985    3.68052142320791
N           3.36262765030322   -5.86989315599294    3.48866904440965
C           3.69361364716326   -6.19356538589300    2.22541446125455
C           4.42192093071420   -5.10337808199051    1.56291490699483
C           4.77830608725622   -5.48898754639814    0.19031616523035
O           5.39497191583142   -4.85393978031169   -0.64273938132521
C           4.20916701482577   -6.84325765166683    0.07250799754579
C           3.55804169938184   -7.23619487508661    1.33608802554792
N           3.02937508049533   -8.47914309776772    1.23705848756808
C           3.30662420626989   -8.87236446523109    0.01608321481620
C           4.04003984941100   -7.89937174928145   -0.76583996901833
C           4.49995039504098   -4.08485452096769    2.48516155021486
C           5.06724448670634   -2.78386890121723    2.38691218715920
C           5.74816654039631   -2.37386873311594    1.29137614874822
C           6.34936580593162   -1.08842608279693    1.07427190765255
C           7.16150134555464   -0.93632709988700   -0.03651694074759
C           7.77995253652215    0.29442491931524   -0.30767843689220
C           8.63839216522032    0.70172762391111   -1.33156509021395
C           9.17852519413428   -0.09050671939035   -2.46767252522821
C          10.03852480068758   -1.28738209343112   -1.97650148396229
N          11.21450173217104   -0.91383375173624   -1.22984613817187
C           8.05180932011449   -0.56890431781655   -3.40259801458068
N           7.42672654618289    0.59236612261963   -4.01113795121593
C           8.93785309228559    2.09269465981746   -1.09288153860922
C           9.69095749650616    2.96768240418130   -1.78638521684737
C           9.85576463790052    4.37724233159173   -1.33253856381893
C           9.04171817968272    4.75076235816601   -0.13854671690349
C           8.29593100661632    3.86065636989781    0.54742805640923
C           8.21739514319219    2.51866518991388    0.11532438949385
C           7.52833620676753    1.41493183343980    0.58772234352088
C           6.69074061809618    1.23972201390201    1.71103270474638
C           6.12852755882716    0.02549124310516    1.94615986463086
C          11.31332842187106    4.56622708497723   -0.98248297120019
C          12.21308503535750    5.10755558377332   -1.80820692588466
C          13.60228322324698    5.29669564016975   -1.49518925818341
N          14.52589220969825    5.13719238284573   -2.42601107465013
C          15.71043016039301    5.34996018071393   -1.81487620878022
C          15.52362179217077    5.69922317614870   -0.40074094681927
C          16.82162154837939    5.95141710275424    0.24468935582905
O          17.04278292061089    6.26601883885881    1.39626727364388
C          17.77635722500037    5.72690410237677   -0.85299294519132
C          17.05793313786427    5.36184917702632   -2.09203926194263
N          17.92876270587965    5.16676527868954   -3.10936069012391
C          19.11552860751017    5.38536649039502   -2.59194736064029
C          19.09280844263832    5.74318323768121   -1.19037191687382
C          14.16592789129681    5.68379031326798   -0.18229988333730
C          13.40963687030163    6.06209468886312    0.96091135004240
C          13.96786105591078    6.44550238932935    2.13401957734800
C          13.18305529094007    6.85652683769151    3.24279227682985
S          13.89410000504565    7.48171018188032    4.71645408474763
C          12.36140075800256    7.76238828911619    5.51372350131732
C          11.36951151611116    7.37150010107444    4.64880841886092
C          11.81674310089448    6.87975410979267    3.40905096875079
O          10.71483038659809    6.52811001147300    2.67934975003295
C           9.64479828801116    6.79644061612820    3.45816068955870
S           8.11734642346337    6.52519672194412    3.00982638918081
O          10.00384726081873    7.31137258746193    4.64999898177415
C          12.28298923726728    8.31623294120008    6.83427478338679
C          11.13318566168822    8.56160884990854    7.46060863305100
H           3.04028437370458   -1.54716117990890    9.92056472142523
H           2.69787930260478   -5.57999970438324    5.87718249354238
H           4.05637590003452   -2.97101150559242    5.02882941770739
H           2.99376997769175   -9.84384405208687   -0.32529855002433
H           4.35973728269913   -8.02730675606796   -1.78128688873556
H           4.93862490130083   -2.12928218981875    3.23740505956939
H           5.87412975766125   -3.08243548637620    0.48276354686626
H           7.31469240627450   -1.78419480977935   -0.68696265731211
H           9.82489865546555    0.55893567970744   -3.06780825833834
H          10.36520327306934   -1.85966064541522   -2.84842003906158
H           9.43801484348111   -1.94148766056573   -1.34268850577704
H          11.83350786908971   -0.33478312360818   -1.78603007983665
H          10.96435816330465   -0.40115968677687   -0.39153087815395
H           7.34972616320837   -1.20299325084437   -2.84209132947118
H           8.48803049288037   -1.17037330125166   -4.20451503227804
H           6.93664491417902    1.13572403779402   -3.30739219160965
H           6.75446884015426    0.30928514636282   -4.71459120153265
H          10.22893620883246    2.68844772970421   -2.68139691870123
H           9.62071894409326    5.04346394899530   -2.17303378514294
H           9.10881856777660    5.77767191034501    0.18495120685165
H           7.73727340259871    4.17464034034506    1.41625767027481
H           6.50642509836391    2.07569616665383    2.36951502481994
H           5.48191700472528   -0.10560535237284    2.79965861550987
H          11.59799052182572    4.18390759531168   -0.01266189392037
H          11.93576976661019    5.37662724827948   -2.81974958880212
H          19.99762447776719    5.29265657863959   -3.20148001143312
H          19.95179828344104    5.96344102263918   -0.58782840532010
H          12.33371930403017    6.07907051486095    0.85588862269021
H          15.04207706885563    6.46165447858214    2.25755023781382
H          13.23381376330545    8.53010207540859    7.30111607518888
H          10.18321199991372    8.34942347721328    7.00039248379737
H          11.11452861517995    8.97814208600900    8.45142156422235
