94
 SCF done       -174.376241162204          0.000564215698
C          -0.85869495604706   -7.01329236044161    5.64048338036242
S          -0.56125109482778   -7.27995733899497    3.95801989308574
C           1.18350493180719   -7.11852878221770    4.10882205404336
C           1.45722670655087   -6.87043814937457    5.43001628219355
C           0.32246235154832   -6.81278248516505    6.27523091564201
O           0.76283411467739   -6.56004618759633    7.53925108625411
C           2.11177030517024   -6.46759285067451    7.46357396716686
S           3.07059289098692   -6.17459024494010    8.72457396418206
O           2.55800457769159   -6.65149434163106    6.19938817919927
C           2.08352614337077   -7.22967123928378    3.01548274470485
C           1.68895327056748   -7.46930895980663    1.74462194103010
C           2.55660639703347   -7.56840390186955    0.62654514527217
C           4.01928902186996   -7.45176372558880    0.59358919116852
N           4.53938583718276   -7.55770213348957   -0.59515695035722
C           3.48633122317342   -7.75392101408048   -1.44095219540971
C           2.22507918427066   -7.78623520519967   -0.69458800706232
C           1.11454972585967   -7.95537480027253   -1.59716590180456
S          -0.47937162774788   -7.99321879986367   -1.17938811620237
C           1.72111277196168   -8.01875911056996   -2.90313216112927
C           3.18349976104624   -7.88885928232727   -2.77276003340420
N           3.77919264028884   -7.87953007327075   -3.99799481929569
C           2.80310360115676   -7.93933540401969   -4.85746728711724
C           1.46826071837003   -8.01781434298063   -4.26032961944418
C           0.23263727918944   -8.07979428836327   -4.98831028975806
C          -0.88185301728249   -8.66835095544899   -4.42067034432737
C          -2.09208542644238   -8.69548179150912   -5.13012455561764
C          -3.33672124515101   -9.21632769115956   -4.78090795583955
C          -3.67308546619178   -9.90190810551540   -3.50511537307984
C          -4.93284307866392   -9.32321879132316   -2.82934650418136
N          -4.77772167977399   -9.40036962614794   -1.39273195620839
C          -3.80721414156727  -11.42211529137757   -3.73257928493276
N          -2.50727207014420  -11.97374060056228   -4.05430141783100
C          -4.21726540381787   -8.96620255725889   -5.89996232035345
C          -5.51111357725206   -9.27560924607302   -6.10998804277953
C          -6.21255320832819   -8.89633001856235   -7.37053563458802
C          -5.37508353724214   -8.14455230089777   -8.34988490643081
C          -4.07830513617385   -7.85487295761655   -8.13446286900723
C          -3.44952935227768   -8.25204761473206   -6.93138961670733
C          -2.15932350810233   -8.10405723584330   -6.45695077812745
C          -0.99934161609028   -7.52497810525280   -7.01843595247804
C           0.15695013093097   -7.52117265072183   -6.30548300021610
C          -6.82517844935101  -10.14687757016890   -7.95872359926184
C          -6.37875134732307  -10.72571215632122   -9.07673641082570
C          -6.94456724232531  -11.89103299393493   -9.68429194642622
C          -8.03022658129616  -12.74867799186505   -9.20447990829560
N          -8.33760243369286  -13.72936426537209  -10.00729069634798
C          -7.49863865503258  -13.60426498875998  -11.07542182743330
C          -6.59769917979247  -12.45658120827688  -10.88785871219386
C          -5.72637215314246  -12.31402308492714  -12.02704385907495
S          -4.56496257359952  -11.17320212419369  -12.26601551825248
C          -6.12032240643004  -13.38286987727699  -12.90427635584474
C          -7.21150629218657  -14.16305313210700  -12.29554676798247
N          -7.60753686959939  -15.16827066666164  -13.12824781956163
C          -6.86242397464292  -15.06369694523413  -14.18829136269127
C          -5.89635312457885  -13.95783374385050  -14.13501537469799
C          -4.99176399197476  -13.63777275655496  -15.17227125244558
S          -3.82593202151719  -12.32747482264148  -15.09251096848267
C          -3.18032099257899  -12.62484551200766  -16.68983685663454
C          -3.85704984847445  -13.69166923713388  -17.22823019256085
C          -4.84647588656102  -14.24726155895467  -16.39902547345028
O          -5.42137987743303  -15.28366783195133  -17.06825362812613
C          -4.79825736841494  -15.35424679462977  -18.26896083613333
S          -5.15153021588930  -16.43947430027522  -19.40681527133665
O          -3.84666193181291  -14.40289820590968  -18.39316283262160
C          -2.12625958011715  -11.82039591206483  -17.23522397785975
C          -1.61512241181966  -12.00635930471197  -18.45159372829226
H          -1.85518376369265   -7.02319930836101    6.02788542748712
H           3.12797486973455   -7.10557064416036    3.26590958064196
H           0.63205502629229   -7.58912004561231    1.53749594256324
H           4.65550950091021   -7.30188524131558    1.44774790343641
H           3.01604299570967   -7.97357018431219   -5.91190717643210
H          -0.81732587300036   -9.12614990332581   -3.44732461931894
H          -2.84776570520858   -9.75242328266481   -2.80422792561640
H          -5.83018930783491   -9.84912933968917   -3.20030415388604
H          -5.02795536752407   -8.26565191900923   -3.09162691379445
H          -4.72422298253242  -10.36321866471291   -1.08110446443353
H          -5.54590332709023   -8.94793778413503   -0.91270203814467
H          -4.56994913728603  -11.60448153052091   -4.51081631657278
H          -4.14450182268501  -11.89628494053449   -2.80664324536915
H          -2.16555746343921  -11.59435719394936   -4.93100686280944
H          -2.54797337764569  -12.98267635406807   -4.13645843844398
H          -6.09572496220153   -9.82338884098886   -5.38504356548398
H          -7.05797700205124   -8.24864335084837   -7.08162451104529
H          -5.87135911184858   -7.84184744131410   -9.25919028120566
H          -3.50478955793929   -7.31250380827664   -8.87132608692936
H          -1.04363916887357   -7.08780953893198   -8.00478877861008
H           1.04278704617182   -7.06375807598169   -6.71870563199509
H          -7.65345844143891  -10.56603088623635   -7.40463897997432
H          -5.54189842415775  -10.29538536716856   -9.61144423989822
H          -8.55854438267754  -12.63234884596187   -8.27453706840618
H          -6.96860737781253  -15.74502159231545  -15.01383432604641
H          -1.76415033148498  -11.03549315748493  -16.58617490821584
H          -1.97467067321484  -12.78626178540875  -19.10146768335158
H          -0.82431090874220  -11.38181342498696  -18.82705831198895
