102
 SCF done       -184.986227878299          0.000719461895
C          10.86161950502160   -9.44153198882825   -3.58045594145912
S           9.65500441391698  -10.02111294279318   -2.51369816136617
C           8.93698689088591   -8.43679450429408   -2.34404192531029
C           9.63168041408399   -7.52798503037885   -3.12456408225132
C          10.72796599013136   -8.10364180147030   -3.81092064400998
S          11.72215856253444   -7.03916385093034   -4.76806233480451
C          10.83301816401480   -5.56489291924173   -4.38054250779563
O          11.14914418893584   -4.47759710348779   -4.75677336307913
S           9.37959599484326   -5.83165353455919   -3.38116373068897
C           7.86833761314073   -8.23690283261410   -1.43754353455182
C           7.34804268773910   -7.02095261065743   -1.13400139234199
C           6.37808850051515   -6.82470436857869   -0.12230833368196
N           5.76446753256924   -7.82715260064704    0.49530401437154
C           4.98262290881147   -7.25811902348480    1.42979804696364
C           5.11851723832921   -5.79257435518163    1.42894971313248
C           4.29430136398462   -5.20267510890362    2.49302599413934
O           4.20441201357512   -4.03683526366078    2.82408063990132
C           3.63217090463842   -6.37876639302927    3.08268880649632
C           4.08577394943773   -7.61209066764645    2.41259836829946
N           3.48586000048340   -8.69926568429396    2.95336286219152
C           2.70089417877268   -8.22545568264603    3.89278247842120
C           2.74311186470888   -6.78578933142648    4.02727447294455
C           5.99938779744553   -5.49516988243258    0.41773108395066
C           6.53655085991540   -4.25455659398918   -0.02161751033545
C           6.27110050938279   -3.08182883113758    0.59614936836257
C           6.86064960685941   -1.80838755351789    0.28298805888847
C           7.61511324804968   -1.57512515136787   -0.84997783024741
C           8.19263003330124   -0.31231874968016   -1.06301113802339
C           8.96011356410493    0.17443485855028   -2.12002832721933
C           9.42716648581119   -0.58001649282445   -3.31354478938131
C           8.94734867237368    0.07440070279459   -4.62783736859377
N           8.73147770873967   -0.96092439438589   -5.61589852238086
C          10.96440870771825   -0.73036123765410   -3.28690364755893
N          11.43337816493467   -1.39974515261501   -4.48355402782338
C           9.30916927219867    1.53376229634080   -1.78835236729123
C          10.01916350526303    2.47226048879309   -2.44830549490187
C          10.46232007422983    3.70483637487011   -1.75253015662475
C           9.72609632170638    4.02263810046863   -0.48896265745009
C           8.92957055566841    3.11280050720106    0.11467420661691
C           8.72856083268730    1.84630393738311   -0.47093362163592
C           8.02243436944615    0.72773499436630   -0.06111628969912
C           7.23206475003628    0.47287678737259    1.08048165141903
C           6.66175028474340   -0.75020137391530    1.23042570161007
C          11.85051761066098    3.44820440941487   -1.19289619969444
C          12.24434201779464    2.24046576803243   -0.75472013180387
C          13.54490818108282    1.93878519620223   -0.27050662527421
N          14.55674469487841    2.79784510278123   -0.28150097101983
C          15.64321133769255    2.09107082511061    0.07452033951287
C          15.30700737251574    0.67491660123994    0.30412849664727
C          16.50555019882227   -0.09368361189169    0.68552290664157
O          16.59058759887910   -1.27445557603730    0.94188576825554
C          17.55768946626402    0.93772983190117    0.67222987784125
C          16.99251080902150    2.25028849861093    0.29590682801453
N          17.95305126871282    3.20337005311959    0.29880605598721
C          19.05401268814599    2.57899895586092    0.65116784150309
C          18.87782608875430    1.16727009758524    0.90392817650604
C          13.95559477856836    0.57236517178963    0.12743973884082
C          13.11492542881863   -0.57691859599998    0.28284904563539
C          11.87179879688681   -0.54304629017211    0.80524156049244
C          11.04597084642991   -1.68812412183719    1.01557439268802
S           9.77437776594044   -1.62664145208513    2.20383272383764
C           9.34241743509722   -3.29551413945876    1.97419185981974
C          10.13631397794475   -3.84484362619863    0.99175531140973
C          11.09214407124718   -2.94879591618274    0.45865449603411
S          12.12069923118635   -3.55702634748753   -0.81296383359253
C          11.43256326805267   -5.18450147209024   -0.85247514866937
O          11.80447912707463   -6.03459332652732   -1.60888609305961
S          10.11971486431460   -5.45285923094511    0.31417651108329
C           8.32534413385975   -3.87725208513826    2.80473956546146
C           8.01157036044765   -5.16990336256548    2.86034570581897
H          11.60563892948889  -10.10286264754818   -3.97439056590206
H           7.48867394635784   -9.10476661607366   -0.91721016214708
H           7.71949753248505   -6.14077906323741   -1.63604576578799
H           2.09887402770644   -8.89306349849971    4.48445753130525
H           2.17892761721253   -6.20753638710751    4.73222585479186
H           7.21862235114608   -4.28775142112238   -0.85912751583731
H           5.59143309885666   -3.09169785743479    1.43804944011480
H           7.74873289834973   -2.34703635356358   -1.59247182894541
H           8.99049019829598   -1.58298522491078   -3.29803937519214
H           9.68126804919841    0.83170214961075   -4.94434454018997
H           7.99099716317490    0.57826267882652   -4.45038803635269
H           9.61863081073133   -1.41613903488663   -5.80919812490393
H           8.37682922130610   -0.56562837986921   -6.47946873331319
H          11.24329448698952   -1.24751230301783   -2.34949433401813
H          11.42526093556844    0.26153220055119   -3.25841351879516
H          11.17210119349303   -2.38114286710001   -4.47643924085223
H          12.44529507748857   -1.36264702963306   -4.53446419844049
H          10.40150338471693    2.31469642787620   -3.44527654504471
H          10.49732496930228    4.56125516729201   -2.43043046519523
H           9.91941274475125    4.98659300949108   -0.04657930315414
H           8.43422654241854    3.34741292010466    1.04550594779888
H           7.08393290373197    1.25104089828582    1.81399825067212
H           6.04355405464358   -0.96223634549402    2.09004329083745
H          12.51581131449342    4.29381711188538   -1.10826013765391
H          11.57101233454474    1.39756634571498   -0.81664589922130
H          19.98201697667810    3.11886664985931    0.72719363898571
H          19.64872331476469    0.48536790057441    1.20421450559810
H          13.57085229636452   -1.52606047015460    0.03166011263472
H          11.46751438329317    0.38507384450643    1.18772938950352
H           7.81606325075553   -3.17071086943982    3.44552961586432
H           8.49918323267383   -5.91290132226114    2.25220386545539
H           7.24983713488949   -5.52440700676819    3.53111288120726
