106
 SCF done       -180.152147294605          0.000621350910
C          -4.31703725681301    2.92981908656071   -3.11154236021664
S          -2.79451337523975    2.28130108113504   -2.68292275540390
C          -2.35189781449750    3.76202196042539   -1.86452803340584
C          -3.35996817030173    4.69942364275988   -1.96706688657435
C          -4.48100879755014    4.21340245116708   -2.68304829544534
C          -5.70561076713060    5.03732245076471   -2.93070461313638
C          -5.36047573903064    6.53268426834287   -2.87257459436818
C          -4.53427696044738    6.89417229088411   -4.00141803683280
N          -3.87050380734624    7.17076567945216   -4.88930216341338
C          -4.60417718962397    6.84392766971079   -1.56065583316419
C          -5.43218477225019    6.45223574395485   -0.44062920181232
N          -6.10861292977729    6.13937987222904    0.42507070509431
C          -3.25294234955741    6.11579174475672   -1.51052886713156
C          -1.05440977435374    3.82934416289980   -1.27521605538886
C           0.09737897999162    3.14370525737465   -1.87720428349630
N           1.21656550052514    3.30203714020838   -1.23721018770244
C           0.90774956716194    4.06955390058184   -0.15612144122910
C          -0.52517157175465    4.42884871627123   -0.15354728200785
C          -0.83432110096739    5.12750951058798    1.07071747620119
S          -2.32781373520960    5.53025753496386    1.64838032552863
C           0.42971186512028    5.26213284770462    1.75305715522426
C           1.47516809708741    4.56989184098338    0.98401739997538
N           2.66349591477013    4.58686143043605    1.65499563512522
C           2.41807886335333    5.20456582641393    2.77261879603874
C           1.03575687034240    5.66802525186380    2.92358768085517
C           0.54091355724575    6.40965957992381    4.04956303912311
C           1.13261723744610    6.26214603235918    5.29006873725288
C           0.62552645953934    6.96289145602406    6.39978685025278
C           1.01347912316547    6.99200827671853    7.74093265582079
C           2.13427488400325    6.29449582708621    8.43393311083463
C           1.85815341975210    4.78624870507067    8.63742097734007
N           1.69008431615208    4.08833637980356    7.37740434181238
C           3.48516199557374    6.51666547037014    7.73229571937289
N           3.77712735119943    7.93927504530105    7.70050579352273
C           0.10749787616207    7.89487965737285    8.41334384892695
C           0.03425232910547    8.28601255420274    9.70057335896553
C          -1.02806895400594    9.21255484496493   10.16984064521279
C          -1.89937255247327    9.77008935511810    9.08827808362042
C          -1.81810570183969    9.36458192263335    7.80603898349769
C          -0.83816206512829    8.42151158750974    7.42133845642125
C          -0.51623383561697    7.84791959808043    6.20577777867469
C          -1.08483783556886    7.99390544532639    4.92133365743700
C          -0.56763648994090    7.29704547572373    3.87789449395113
C          -1.96650877029084    8.46468433524338   11.08930266784924
C          -2.39370786023074    8.95305524584833   12.25827847045830
C          -3.34660136285162    8.31556588187628   13.11227353187667
C          -3.98016242605233    7.00418856710020   12.95526799385933
N          -4.83634742644028    6.70363619888103   13.89076627058536
C          -4.84493536302116    7.77628082287016   14.73452272492275
C          -3.89063181084897    8.79619954160191   14.28021797117710
C          -3.93058951412333    9.94278869182173   15.15255253488681
S          -3.05178271968709   11.32437092030416   14.98841664519213
C          -4.93693411798239    9.61001928138044   16.12867780421222
C          -5.47489905356284    8.26719186583774   15.84848863825603
N          -6.45531571286726    7.94642974950431   16.73882961903731
C          -6.59259049140763    8.99280760247896   17.49878871432018
C          -5.69506385101296   10.10709844741897   17.16910309915485
C          -5.63958028472227   11.36780881103169   17.82600477317060
S          -4.17825745031263   12.31677909101221   17.76168962396256
C          -4.88272048383096   13.53484840419030   18.72134877039961
C          -6.17987625455365   13.26267446648223   19.06056572287765
C          -6.61932964359075   12.02093029981334   18.55679764523676
C          -8.01158874946582   11.51901310006627   18.78506313850010
C          -8.94953667026064   12.66514864931842   19.19768816135217
C          -9.20779209045132   13.52900155890745   18.06776478063264
N          -9.40210875122385   14.21692380896175   17.17660488718932
C          -8.31834273968240   13.49029227139002   20.34235197206451
C          -7.99945890226642   12.61363968098419   21.44654235599489
N          -7.74193256711288   11.91295568068980   22.31125800475593
C          -7.04923549129508   14.19746890526102   19.84475365987890
H          -5.01326160244234    2.32942484900209   -3.66315817896485
H          -6.45373002355459    4.82089545402432   -2.16082205173477
H          -6.13940477611241    4.78387802423609   -3.90095917828548
H          -6.28172057947215    7.12669759024545   -2.92018568106520
H          -4.43003505764641    7.92434057097941   -1.48068052840857
H          -2.86942127466601    6.15192200377280   -0.48571258685149
H          -2.53564403701894    6.64260176642209   -2.14907506381965
H           0.05236639459345    2.56707579481889   -2.78497884356724
H           3.20870400579186    5.36865011201182    3.48394016148651
H           1.94070445208960    5.56139783555704    5.42323717311100
H           2.23077670270405    6.73205186556767    9.43221231532465
H           0.98588527952446    4.68865164833511    9.30502104469524
H           2.72321287892633    4.35705811795517    9.14921944229836
H           0.76464852820404    4.25753693356161    6.99848944216973
H           1.79594234824560    3.08904418237456    7.50451205147339
H           3.46901403733191    6.04164193204013    6.74327992403908
H           4.26743752748135    6.03269346255097    8.32350410845938
H           3.09444766914757    8.42428075170828    7.12678970441158
H           4.69548439045512    8.10586654542597    7.30554040217269
H           0.71383916647853    7.91594077892217   10.45579517653031
H          -0.57190343641646   10.03073249426596   10.74137609634679
H          -2.63915360925147   10.48835247431209    9.40597784120955
H          -2.48198699053083    9.76835067666636    7.05577157100922
H          -1.92375031655854    8.65879559309140    4.78179974609499
H          -0.98400795614919    7.40432237101186    2.88996010948269
H          -2.33063311799807    7.52391127651235   10.70311848866231
H          -2.02864096840638    9.90805437681674   12.61536283474373
H          -3.77832965030073    6.30159564240370   12.16598140425299
H          -7.28145284317711    8.96725375028401   18.32282954086401
H          -4.31439125030892   14.40683934259053   18.97884299018561
H          -8.00727639963453   10.77775830964397   19.59170621098328
H          -8.39481715145090   11.03790235628090   17.88134248590251
H          -9.90876831794908   12.24642615382315   19.52709790131816
H          -9.03701143357677   14.23690425627496   20.70261667787995
H          -6.49103054307453   14.60757880648318   20.69037810315509
H          -7.34266214746106   15.03519144390200   19.20334416734088
