113
 SCF done       -201.197226952522          0.000573435716
C           4.56308108806963    3.84740055877206   -4.02639922638597
C           4.16910924609408    5.16404304350890   -3.42743977696515
O           3.05173331608883    5.47626749871980   -3.08492019877285
C           5.42927310405951    5.90828634546229   -3.30496150202942
C           6.45783565361216    5.19732646147401   -3.93168518282671
C           5.91400423191578    3.98894812190161   -4.54007925368199
C           6.47227513518224    3.27070200137862   -5.55688337830676
C           5.78254171314726    2.26428203535559   -6.26962895861037
N           5.23817353285594    1.50716053506015   -6.93803082305260
C           7.75151576068958    3.52997635013698   -6.09415262362095
N           8.78318978761747    3.70550542597831   -6.56376819845271
C           7.77114506504418    5.68329564803402   -3.91885345862951
C           8.02604097939637    6.87344586012184   -3.28810462055754
C           7.00830908117086    7.62444468142723   -2.65853457343313
C           5.66844805233753    7.13774206105055   -2.65801512354882
C           4.65805690748454    7.88624944263073   -2.02208195839229
C           4.96259592347901    9.07311978208064   -1.41289870349727
C           6.27971742628743    9.55828658841331   -1.41181768326364
C           7.28092638680229    8.85110486379374   -2.02037818164109
C           3.75867966958308    2.77067804686247   -3.87420249791358
C           4.13099980370047    1.40332798205009   -4.02652499097836
N           5.39614389705073    1.01982554709145   -4.00667014543509
C           5.37447815245121   -0.32822899900472   -4.09376857608158
C           3.99937902484198   -0.83666207019639   -4.14923305676320
C           3.99991417251490   -2.29988123098529   -4.26075755787501
O           3.05353851736089   -3.06025159242248   -4.28442888882205
C           5.44059188251456   -2.62146017336737   -4.31984850409752
C           6.24305814847342   -1.38498767792162   -4.19406871804475
N           7.56907313947262   -1.66562195528094   -4.25773133179400
C           7.63582408750247   -2.96109072454994   -4.42844465076369
C           6.34117392395923   -3.62085840657482   -4.48424661897724
C           3.18260420399682    0.26994142247787   -4.12520568846468
C           1.77053024648594    0.38128020127710   -4.21558520997712
C           0.96394217117268   -0.70772801906250   -4.21730757347992
C          -0.44715372497866   -0.68074505341852   -4.33653232026312
S          -1.30117462755590    0.79226836085095   -4.75209927920920
C          -2.80433889162948   -0.02350617629571   -4.75983354739006
C          -4.04381820635598    0.71562202195655   -5.12758613088377
C          -4.33721620635889    0.56281027926594   -6.62486531912499
C          -2.67896511678962   -1.36265071083649   -4.40441201284227
C          -1.32090338236098   -1.73852446593590   -4.17843102675435
C          -0.84630219361161   -3.11928575038254   -3.85428193464969
C          -0.52968408988361   -3.27115990287225   -2.36297940283134
C          -3.83851963540456   -2.20189684928853   -4.30632547766515
C          -4.01054045066840   -3.25616515460928   -3.47295084020268
C          -5.21745937255515   -4.00114284969923   -3.46897893907776
N          -6.18380734621322   -3.79479504211717   -4.35753296216943
C          -7.15452066422470   -4.67276501688447   -4.05959413224231
C          -6.80436026651029   -5.48658060210062   -2.88107624626761
C          -7.88440589590070   -6.44213690790905   -2.57889602022304
O          -7.95942013628477   -7.23314921046915   -1.65956338542165
C          -8.85565422079554   -6.18241961292323   -3.64974646577149
C          -8.38273562973117   -5.08635316612720   -4.52073664554919
N          -9.27666257365172   -4.83935556576486   -5.50603420941739
C         -10.24760300730143   -5.70221151609265   -5.31164388742127
C         -10.04792131983069   -6.57187874735782   -4.17418712770909
C          -5.55344279724847   -5.07157103305036   -2.49696379637180
C          -4.72790314320774   -5.51905297107604   -1.42825251324563
C          -5.13736861453056   -6.46905962454918   -0.55412245889699
C          -4.35471252668172   -6.94360204948783    0.52855213939154
C          -4.65968259680035   -8.02665177609977    1.28844122807626
C          -4.05326729316330   -8.22362102751397    2.63442305491519
O          -3.05864326453624   -7.67448476724160    3.05608208028642
C          -4.96133792236126   -9.15674589715931    3.32435758227822
C          -5.94097932949787   -9.60232377250826    2.43402363032440
C          -5.68436402199608   -9.03770093852219    1.11261122467214
C          -6.14843238531650   -9.52093723844856   -0.07953144932048
C          -5.63137005478486   -9.13822751114485   -1.33803978023001
N          -5.18743811521830   -8.92835828640859   -2.37499777534528
C          -7.10039188962324  -10.55611445256768   -0.19509018331507
N          -7.86927295058272  -11.39554064191430   -0.33952071584762
C          -6.95032135187216  -10.47430817883738    2.86158539362616
C          -6.95448293638876  -10.88595683059707    4.16882806941756
C          -5.97156163281483  -10.46515220068869    5.09179394283136
C          -4.94196681396241   -9.57463415515949    4.66984110548453
C          -3.96656391235450   -9.15296965938818    5.59597821060202
C          -4.00840219179474   -9.59765475794262    6.88874652268912
C          -5.01974096250581  -10.47577923500195    7.30971376425839
C          -5.97980084265913  -10.90032348740825    6.43257977971279
H           8.56838495921167    5.12634731880369   -4.38336032006584
H           9.03443132417847    7.26052369302116   -3.26416390721750
H           3.64948806984817    7.50424098497419   -2.02766987766443
H           4.18782266161028    9.64652338717347   -0.92651777021189
H           6.49752127476575   10.49696432633342   -0.92456091469111
H           8.29520034469431    9.22283812606406   -2.02129747709193
H           2.75699548052973    2.97208092058573   -3.51063299343678
H           8.59079359962611   -3.45061146469184   -4.50968803443363
H           6.18439463283124   -4.67215814034192   -4.62387917012964
H           1.34284067547978    1.37261305310598   -4.28898496376753
H           1.41590373227931   -1.68591379910077   -4.12102345844463
H          -3.91332764098338    1.77482251428855   -4.89772176286705
H          -4.88944758160478    0.34144278334309   -4.54825527717058
H          -3.51607919119076    0.96535108066195   -7.21337969252476
H          -5.24524169622813    1.10199119693794   -6.88019145569049
H          -4.46978676599238   -0.48365145985285   -6.88744159477258
H           0.06183285024796   -3.33467888985311   -4.42031894397879
H          -1.60429466590674   -3.84275968943148   -4.15607421359724
H           0.31026492373979   -2.63760499204622   -2.08977128744276
H          -0.26650922219842   -4.30257071868979   -2.14314062997168
H          -1.37921719991446   -2.98445419027856   -1.74531700055174
H          -4.68541952005287   -1.94315962765190   -4.92746922536195
H          -3.25628536299670   -3.53605052777647   -2.75648701682008
H         -11.09886828974408   -5.71665412052046   -5.97007317124051
H         -10.71886383983017   -7.34276453579193   -3.85057983646520
H          -3.73356032132911   -5.10192353237405   -1.34035340892707
H          -6.13276029858922   -6.87599329473773   -0.66480797605312
H          -3.48830202923118   -6.36640022313491    0.83346353277531
H          -7.71702303944705  -10.80481113461599    2.17989832499414
H          -7.72940033398817  -11.55354580843797    4.51715511393729
H          -3.19483192656242   -8.47771222274041    5.26173048986461
H          -3.26044174479026   -9.27465187021085    7.59743474663454
H          -5.03378200529000  -10.81406917128260    8.33528092731474
H          -6.75893077675365  -11.57636749576011    6.75401393717765
