128
 SCF done       -223.901984364610          0.001003871175
C           1.77219452813466    3.19334140242329    3.08839130209589
C           1.48155272776357    1.72902512232166    3.03391826199213
O           1.26944995910228    1.08403631373892    2.03056885027516
C           1.56353975958119    1.28148829345057    4.43244461989551
C           1.69814222172267    2.39104186550805    5.27233639643767
C           1.66057105716888    3.61031685441081    4.47370500285151
C           1.35270802728473    4.86577232773615    4.91158248459801
C           1.07165636493787    5.93332739842526    4.03005873407201
N           0.73362448875556    6.79033196639655    3.34615504913020
C           1.15031488921364    5.20145097744940    6.26640476445238
N           0.96953388149015    5.51393706006829    7.35540227426519
C           1.82919821865278    2.22673908595077    6.65688439573651
C           1.81923609333765    0.95652259244970    7.17218253283597
C           1.67566772347146   -0.18594806449270    6.35337067172232
C           1.54413815051001   -0.03229568173201    4.94249059767341
C           1.41028339068501   -1.17540854760552    4.12913741572247
C           1.40462045836951   -2.42250448197434    4.69165542322117
C           1.53154715397150   -2.57993840304380    6.08077038549189
C           1.66379301787560   -1.48759267530980    6.89411773109166
C           2.22460601002717    3.84248140323443    1.98880276568788
C           2.90782359393003    5.09116943682646    1.95839110789601
N           3.51437599352544    5.58336732464459    3.03250549095276
C           4.20205545141499    6.65994055425229    2.60669681021285
C           4.04625706498842    6.85163872839564    1.16094348021721
C           4.80539578785738    8.02672945347697    0.70341081929292
O           4.92654028739477    8.45720553641655   -0.42133836586668
C           5.38817498268301    8.53509889595714    1.96315797297621
C           5.00409674093402    7.66492614031315    3.09597895814050
N           5.52241476400495    8.13118916617961    4.25667763303781
C           6.17674095247437    9.21903767382096    3.92568615779564
C           6.12563903891929    9.53405330895186    2.51134654847240
C           3.18471395494621    5.87377495344967    0.73651391289821
C           2.66231549317379    5.64185186384946   -0.57111727079194
C           1.45262041094545    5.09566418904101   -0.81063948003240
C           0.89206797791888    4.80675434557151   -2.10623446123263
C          -0.46232435023418    4.55365724133110   -2.20915602404308
C          -1.03011047947111    4.22162276274594   -3.44942799134046
C          -2.34503110854268    3.91707679773379   -3.80802360473600
C          -3.52717334584511    3.97832022536183   -2.91517434450893
C          -4.47459651481999    5.13714514300000   -3.36063803332408
N          -5.51068700707330    5.45628326862092   -2.41906654825182
C          -4.29060160238662    2.64324624060052   -2.83275497517903
N          -5.21001544538078    2.66358914467815   -1.70410424953591
C          -2.33022546205172    3.59481056069411   -5.21434356995530
C          -3.30189458832793    3.21090544886740   -6.06513388264351
C          -3.01657090885370    2.91176365223824   -7.49407267398859
C          -1.57440260581313    2.98903382787214   -7.88180760676422
C          -0.61662369764220    3.40626596170597   -7.02705064437576
C          -0.94176365928010    3.71541094606792   -5.69073388258259
C          -0.16795510488782    4.11146238525936   -4.61193600190667
C           1.21016691041686    4.38892870976852   -4.48742876776124
C           1.71565956353892    4.73423462942154   -3.27392698802888
C          -3.68333176545386    3.93121309659576   -8.37779959879572
C          -4.46472084979628    3.61413247638989   -9.42138938595602
C          -4.99969734605194    4.60081758669483  -10.30322838892691
N          -4.69434446638051    5.88560192841427  -10.18947390748826
C          -5.33075999833126    6.50746137187049  -11.19864274905004
C          -6.12032203489642    5.56009066497161  -12.00158054115858
C          -6.77973517941853    6.25840661809998  -13.11839701582682
O          -7.52619150078192    5.80250635173642  -13.96183850733566
C          -6.31715680361972    7.64306412495855  -12.95292696795241
C          -5.44706769939973    7.75698571496928  -11.76307847699096
N          -5.01093273330752    9.02845781000192  -11.61058301551171
C          -5.53650207019099    9.69395916911940  -12.61336214554830
C          -6.35698898631862    8.88981407004192  -13.49247506319791
C          -5.91031107839620    4.32378294994547  -11.43765476418672
C          -6.39966590749515    3.04657943341809  -11.82936229468521
C          -7.21527601825893    2.88591438942659  -12.89831824232742
C          -7.69049093355263    1.63047461181671  -13.35556788175478
C          -8.26894094282406    1.41595865069715  -14.56493138911695
C          -9.08310793097323    0.19834550280387  -14.83164525923168
O          -9.08311101097696   -0.81789079121487  -14.17102296450936
C          -9.90196032718114    0.54042795690525  -16.00784772173656
C          -9.52261465166209    1.79346741339774  -16.49484127401929
C          -8.39777089403858    2.29490204529256  -15.71124610836070
C          -7.50465966120638    3.25481483228978  -16.10069082239138
C          -6.26082404795696    3.47788548320097  -15.46813385370919
N          -5.20422795921461    3.63784352146675  -15.04965164756056
C          -7.64782333423942    4.04358688516599  -17.26202740489668
N          -7.72360386989767    4.71308062582293  -18.19074939953581
C         -10.18049451165773    2.36092475277554  -17.59359602118138
C         -11.19808732249440    1.65957417267437  -18.18595477352188
C         -11.59614518540810    0.38378543823786  -17.72888602762966
C         -10.93831688286670   -0.20172994858168  -16.60832380035096
C         -11.34161781464962   -1.47363252689721  -16.15365025297575
C         -12.35502738086121   -2.14017613823438  -16.78569900638479
C         -13.00617013601965   -1.56841295842385  -17.89039568129554
C         -12.63654620710405   -0.33482682934864  -18.35201293269979
H           1.95004352082029    3.08136069309173    7.30250924130264
H           1.92561530802513    0.81027576717309    8.23736628578565
H           1.31514623453811   -1.04289478673805    3.06296288252443
H           1.30309398205158   -3.29796554490142    4.06778495943872
H           1.52533546747332   -3.57367685988095    6.50341595229115
H           1.76196713949008   -1.60646840658750    7.96337078823962
H           2.15630086539344    3.30336648314434    1.05000791898315
H           6.69579446437312    9.78935319904935    4.67647756681794
H           6.58974107725379   10.38006835560583    2.04426675844765
H           3.27911102245446    6.00630604327345   -1.38135219708312
H           0.80545466504348    4.88266940986049    0.03181201743369
H          -1.08236185246235    4.61589232852696   -1.32606850527597
H          -3.18103263247667    4.21680937211871   -1.90266193255913
H          -4.94946124814125    4.86204394910387   -4.30548706845193
H          -3.87135605406860    6.03269043939732   -3.53256920002068
H          -6.02128691679258    4.61598631725964   -2.16258098511412
H          -5.12870078992170    5.86515621591755   -1.57415270837393
H          -3.55542804330678    1.82317594461065   -2.77527687387292
H          -4.88845908391729    2.49513064349012   -3.73435804889249
H          -5.79167485702421    1.83329635924029   -1.70333796018884
H          -4.69567902631313    2.68047939150339   -0.82889783971673
H          -4.33550398330961    3.12428580302709   -5.76503191210036
H          -3.42126406385563    1.92042005040072   -7.73810940939829
H          -1.34525204407755    2.73855665951822   -8.90550030095780
H           0.41264852657001    3.47585112373845   -7.34684466227405
H           1.84956127936698    4.31946883677880   -5.35461409983240
H           2.77058849789726    4.93315205238862   -3.17138195155213
H          -3.45389105325788    4.96781430160971   -8.18151694603046
H          -4.70585779714014    2.58071841554878   -9.63032057868597
H          -5.34287971674700   10.74667640730607  -12.72571939908383
H          -6.86663029418539    9.24132652244714  -14.36762215964264
H          -6.06235100067882    2.17868121315360  -11.27822443458674
H          -7.53667403021744    3.76547209698961  -13.43888372847450
H          -7.65469715556267    0.78322312115874  -12.67894163555607
H          -9.90132899521919    3.33582477000501  -17.95871775277627
H         -11.72010672883492    2.08506196385327  -19.03091965841723
H         -10.83496238354546   -1.90273274324813  -15.30365491753536
H         -12.66239162262576   -3.11514455724469  -16.43769611432686
H         -13.80421669911209   -2.11215996891373  -18.37398997505741
H         -13.13574974632172    0.10719483538839  -19.20220531170742
