107
 SCF done       -203.602826344432          0.000461733834
C           0.69369713213189    2.21670305801493   -0.78388939534547
C          -0.50990698437729    3.09320247421514   -0.95377801787728
O          -1.51195024897898    3.05090499882639   -0.27770153016009
C          -0.15486302215495    4.00326230844690   -2.05049353931583
C           1.06930043639102    3.61637784221232   -2.60686251848459
C           1.53773095584289    2.40161918319740   -1.95322054016890
C           2.42083575044391    1.49449764928277   -2.46225912411854
C           2.62289022537349    0.21067417591349   -1.90905534619070
N           2.76162658646546   -0.86863577406997   -1.54486453221260
C           3.14440702155754    1.68298288450010   -3.65985767608361
N           3.75271297946686    1.78954996068126   -4.62638496327293
C           1.64239225377048    4.35178934172228   -3.65199927593893
C           0.97322256903098    5.44927763813398   -4.12799567557610
C          -0.27479990004920    5.85495344026577   -3.60442927753013
C          -0.86408821496600    5.12197960051492   -2.53290202545981
C          -2.10722207949395    5.53281621861549   -2.01180952830623
C          -2.74431657530080    6.62505089721945   -2.53497954253794
C          -2.16954788591440    7.34977072252411   -3.59081003584276
C          -0.96188220952139    6.97487824089051   -4.11420269586494
C           0.89838270976242    1.54041289844820    0.36511187492565
C           2.13104318839597    0.93833871082254    0.77239989429330
N           3.29674248726270    1.45122396112782    0.43014018434053
C           4.23058653642669    0.62887708224941    0.96458931182077
C           3.60661917943770   -0.48479587878145    1.68773916627318
C           4.63633127537926   -1.38611781073746    2.22721799032862
O           4.49257673729849   -2.40249004362798    2.87077912576396
C           5.89155631451363   -0.74537013680205    1.78353972617443
C           5.59245387357730    0.48612116634722    1.01789567391335
N           6.73894905399356    1.07959312953636    0.59920369292272
C           7.70165908172322    0.31197091333638    1.04117180166432
C           7.24250182876646   -0.84790776803542    1.78897870467081
C           2.24930104233532   -0.29072118573884    1.59013510334290
C           1.15413170677627   -1.06384239592879    2.05827775428772
C           1.31671547662494   -2.28412610999840    2.62669359248861
C           0.26063580433307   -3.11216558271336    3.08671987201655
S           0.62578839191112   -4.78629235244064    3.46201943972266
C          -1.02220180007537   -5.07938747728209    3.86175286866507
C          -1.79668957820604   -3.91365331155612    3.73371515581313
C          -1.07571765152114   -2.81086681817427    3.28712835349257
S          -3.46930652534579   -4.16277774922197    4.15320324744081
C          -3.13423317579267   -5.84290975185093    4.47357416845649
C          -3.92026939331609   -6.92024607307251    4.86272058908138
C          -3.19326873413267   -8.09869648390065    4.93731324971885
S          -1.49465804845516   -7.84772506625765    4.54134292322113
C          -1.78379781189321   -6.17588875274472    4.26688688886922
C          -3.69562178026410   -9.37976837875043    5.24055508276788
C          -2.97904141211584  -10.53355041226308    5.14445708324557
C          -3.55453400014672  -11.79615195835351    5.40679340929867
N          -4.79161457169411  -11.92505018917543    5.88348923024939
C          -5.01425253213726  -13.24288187550657    5.98127030645184
C          -3.84147171995489  -14.02475469543978    5.54887061316407
C          -4.12868925866206  -15.46751904709101    5.63102045159153
O          -3.39564538665269  -16.40108675753216    5.36978140989957
C          -5.51604371898765  -15.49575024490630    6.11026597535883
C          -6.01734782788442  -14.12256238177274    6.32321176994517
N          -7.29890293817467  -14.14313626722851    6.75443084940966
C          -7.62046385371709  -15.41604849821809    6.81293179907181
C          -6.55830227481771  -16.31309033745063    6.41875182380881
C          -2.89683299670732  -13.10489640494958    5.16696344917813
C          -1.61074983053103  -13.29913246044896    4.58920958113120
C          -1.12254571138286  -14.53507323370301    4.32962215660657
C           0.10719714209819  -14.78347054123851    3.66688866151039
C           0.46032653012886  -15.97309056319770    3.11689941530159
C           1.87500145416679  -16.27828250117914    2.76559037562372
O           2.77079036282455  -15.47059322840205    2.64903509107379
C           1.93089275071855  -17.74705554997077    2.65867682150929
C           0.64570156442902  -18.27622047248213    2.79621150137938
C          -0.31453857701453  -17.18389811078161    2.92137791681400
C          -1.65654327162939  -17.25889061628710    2.66855702612207
C          -2.49347294055425  -16.13572965293070    2.48158569559711
N          -3.20085050525329  -15.26702165775451    2.23265079596564
C          -2.34881883096902  -18.46429996249451    2.42442328310494
N          -2.95870170153269  -19.41436226997734    2.21946818138109
C           0.43788016510177  -19.66130760300939    2.76828316536921
C           1.51814159082494  -20.48587649217008    2.59187081947909
C           2.82810219885208  -19.98300601629127    2.43005804854423
C           3.05362971390363  -18.57624869231430    2.46596071782971
C           4.36330328353404  -18.07920727149316    2.30869717037640
C           5.40776294292957  -18.94182272464215    2.11968398022540
C           5.19119594325425  -20.32848498948791    2.08190187127639
C           3.93108200300808  -20.83863024239628    2.23422104114476
H           2.59617925496924    4.06772534076392   -4.06574607572499
H           1.40232590968114    6.03013429099717   -4.93152237186852
H          -2.54028043421616    4.96972387158871   -1.20028142762133
H          -3.69801359075552    6.93761230470596   -2.13708036336647
H          -2.68950338620690    8.20887627082184   -3.98778709537306
H          -0.51787688774831    7.53077824473068   -4.92711438571974
H           0.06654098289958    1.49864324820339    1.05982934273832
H           8.72983818937985    0.56065056252875    0.84286018895968
H           7.87378588084216   -1.59416596680784    2.22918180969771
H           0.16299225767109   -0.65819125937869    1.91194931866972
H           2.31592502538281   -2.69007128912714    2.71955402575132
H          -1.50020922140352   -1.83686514970272    3.13184199358721
H          -4.97365392171965   -6.86816363315333    5.06706839760681
H          -4.73376849723969   -9.45080323919420    5.53594753515324
H          -1.94583681480931  -10.49679513951327    4.82744147664867
H          -8.60394115289347  -15.71151511459693    7.13523459493922
H          -6.62054603934999  -17.38290134825390    6.39013026423348
H          -1.05044348121492  -12.42430683012564    4.28729016456595
H          -1.70167622456237  -15.39478026510949    4.63796491220966
H           0.84952926106171  -13.99325968227159    3.63259247635369
H          -0.55035217274832  -20.07221825303166    2.89552027829665
H           1.37629904183261  -21.55687199385662    2.57265774890850
H           4.51792451772228  -17.01227360116382    2.33997497143752
H           6.41049672125671  -18.56021078495533    1.99770422747387
H           6.03049631423168  -20.99134222055666    1.93139889950713
H           3.76167570171212  -21.90534803909727    2.20503740681851
