112
 SCF done       -194.643087929267          0.000263716582
C           5.21344491148779    0.69093649198022   -0.45155288067139
C           4.35235364853289    1.63983182106610   -1.22086245247020
O           3.23091790013515    1.40251966304228   -1.62001594179091
C           5.13019371980048    2.87495006992850   -1.35423719760672
C           6.37410553260210    2.69991196752250   -0.74830425710167
C           6.49246697135153    1.33575938581368   -0.24023916250415
C           7.66727880146132    0.76966882741979    0.18844281206232
C           7.87555609447174   -0.57933352208941    0.52426786995488
N           8.16637189575761   -1.65737649748784    0.79604111829745
C           8.88620737212600    1.46716973457328    0.28418347918386
N           9.91914643523416    1.96183565186110    0.38625004336123
C           7.29437571330158    3.75848885919840   -0.72533165161292
C           6.96298498750563    4.94268076055744   -1.32757972896836
C           5.72156971338726    5.13873931949885   -1.97097346996086
C           4.76751890359902    4.08224646661728   -1.98321587284298
C           3.52448244291563    4.27933410118509   -2.61771347282770
C           3.24079446572178    5.47510563240147   -3.21847491440848
C           4.17921062575438    6.51902784054384   -3.21055746742671
C           5.39282959394905    6.35556185679548   -2.60024712286285
C           4.69402847679593   -0.53674755861311   -0.21962908794502
C           5.09967553426484   -1.66880308708314    0.55800824923143
S           5.38444895806457   -1.60669169686337    2.27709624924523
C           5.46259799732176   -3.30709723308109    2.37168661600324
C           5.31692993135199   -3.91405367323105    1.15145660402712
C           5.36853049798248   -5.30004820708213    0.93603011007931
N           5.40773014616720   -6.42473453830344    0.71175879831917
C           5.10422501155014   -2.97486132396861    0.09448181438912
N           4.99202502653158   -3.28659179873471   -1.24312492485491
C           5.64881380495185   -2.34643550721415   -2.10759476898602
C           7.00166174517572   -2.19964664003598   -2.02362607688520
C           7.60103261021907   -1.04286308723943   -2.57327511279375
C           8.90857104863908   -0.58139165328300   -2.49976334108923
C          10.05903654141083   -1.42571506724886   -2.04740349924356
C          10.52196990525662   -2.35474297715156   -3.19478064215219
N           9.54765517187730   -3.39926444767052   -3.43081755166455
C          11.26186157458390   -0.69536625374493   -1.42743792628576
N          12.14565681858235   -0.06103582012383   -2.40530517124120
C           8.88220480223362    0.77660111331237   -2.99825208357163
C           9.84345200169130    1.71308819037406   -3.09110335675042
C           9.55651085798292    3.09519206736552   -3.56712430320994
C           8.14199063403823    3.32372855819257   -4.00308615902016
C           7.19859585558556    2.36621751223191   -3.93175845825865
C           7.50871130760933    1.08643081929558   -3.41977724511480
C           6.74321532709975   -0.04320369985129   -3.18867099677759
C           5.38360361262245   -0.34065817008990   -3.43223120711653
C           4.85163017059194   -1.47712552130760   -2.90631209831894
C          10.55882202489649    3.46337562736877   -4.63312900798467
C          10.52610863099109    4.55268800805839   -5.40307501199880
C          11.46223348843934    4.78751593028880   -6.47554463131761
S          11.97091116028299    6.39469160536950   -6.89218955486369
C          12.99082694127059    5.80670858350434   -8.12768885515235
C          12.94469749738117    4.44194141584095   -8.24827968379079
C          13.66544090801078    3.76810588200343   -9.25267737405855
N          14.25171169196127    3.26199759449335  -10.09786372298953
C          12.05862225625617    3.84774275667646   -7.29606911988051
N          11.71006858300995    2.51215213155558   -7.21538997396497
C          12.41480962535844    1.45730804251770   -7.62069447693557
C          12.12026671303292    0.12304360586945   -7.52140752946880
C          13.21006087927429   -0.79544258186193   -7.94235937891463
O          14.28800540912604   -0.45584352154081   -8.38494493111864
C          12.71792991431918   -2.15656227308191   -7.67853111606777
C          11.43524837626460   -2.07809024174113   -7.14226413098454
C          11.02156205863663   -0.67391736749181   -7.03723758411058
C           9.78220741495623   -0.28618164994419   -6.57259307006081
C           9.25609451002488    1.01192371089407   -6.58483485351665
N           8.76945496676910    2.05698073540395   -6.59435594905503
C           8.81319321348047   -1.15103618541549   -6.02490999272082
N           7.97609960182014   -1.77212097327193   -5.54023905976315
C          10.73639667255309   -3.25305306013099   -6.82916544739309
C          11.34339903613416   -4.46456304256419   -7.03469167232316
C          12.64616923256977   -4.57135183490457   -7.56568986744996
C          13.36065135508134   -3.38713247654073   -7.90871938861264
C          14.65452499135494   -3.49266101248570   -8.45995513883960
C          15.21694453812593   -4.72272490798556   -8.65923706053507
C          14.51835949955945   -5.89283581308970   -8.31823973739677
C          13.26183931552263   -5.82063378184124   -7.78331075044898
H           8.24535589345427    3.65393411263927   -0.23088635070325
H           7.66381462830623    5.76581437286811   -1.31042997315419
H           2.81081128203091    3.47071321655322   -2.61622702247365
H           2.28825182466611    5.62522422622778   -3.70445472657158
H           3.93391597129169    7.45523530239190   -3.69009881342109
H           6.11606408333398    7.15875051355559   -2.59001579526404
H           3.74001126952942   -0.68817551056925   -0.72699340986174
H           5.62154983528901   -3.78566652840713    3.31790702502150
H           5.14492415683206   -4.26589976681500   -1.45399339700794
H           7.59865184622057   -2.90066795221155   -1.46039526518529
H           9.67209191510326   -2.08816494327095   -1.26429943473224
H          11.45232017979529   -2.84476662499520   -2.88863374657463
H          10.73316559394363   -1.74101033057621   -4.08920128631244
H           9.90837134432632   -4.06765382157991   -4.10302300967146
H           8.69534906180970   -3.00238160555027   -3.81763622084569
H          11.80309786011342   -1.43379938945874   -0.81489329162605
H          10.90400963562055    0.08850670590286   -0.75741712137107
H          12.56956455582210   -0.76516872996767   -3.00074138242395
H          12.89938399676026    0.40322068293099   -1.90744335586480
H          10.86753670357758    1.47651718925138   -2.83460923631021
H           9.74558115762847    3.75952087931902   -2.70487877348426
H           7.90228705769513    4.30384662828582   -4.38171866979162
H           6.18948558958989    2.56780798352900   -4.26030726053760
H           4.77574471009273    0.34818948717494   -3.99862124206713
H           3.80832806293546   -1.71810029278432   -3.03889283071713
H          11.37294735003244    2.75870517857386   -4.73817566440589
H           9.78607294790902    5.32456687543602   -5.24705880584890
H          13.57323645477594    6.48461146878440   -8.71969517350569
H          10.80328314888792    2.36097216269916   -6.78122891989543
H          13.38697498469432    1.66771647190626   -8.05725598361908
H           9.73157144980684   -3.21722285901379   -6.44430540694620
H          10.81263346621259   -5.37508945811366   -6.79484041378291
H          15.18030469604427   -2.58708119281621   -8.71792153306772
H          16.20674947624835   -4.80382164041191   -9.08293851257750
H          14.98278350343811   -6.85359656629947   -8.48445617634030
H          12.72094869988091   -6.71889988061162   -7.52247490733945
