114
 SCF done       -208.534881468487          0.000973894003
C          -0.23468373832532    3.05469119396440    7.31852322147274
C          -0.47627762239660    1.57343041147276    7.27901720106277
O          -1.01076354035415    0.98217379768860    6.36888731284473
C           0.11160185340016    1.06439421916753    8.52206596800160
C           0.53766270280810    2.13864700302100    9.31234108993197
C           0.17109811753185    3.39556649275990    8.66824870425662
C           0.01621543902841    4.60611563834890    9.27994120433385
C          -0.64516690683058    5.70323264416513    8.68430354616905
N          -1.27084201991351    6.58781322870754    8.30606318443606
C           0.36279761772273    4.85926593309427   10.62476048786573
N           0.62868097802655    5.11034789478674   11.71201734525286
C           1.17712853721805    1.91137373701447   10.53684496809570
C           1.35832909551795    0.61781518792475   10.95404098829417
C           0.91111900089194   -0.48760464724901   10.19702835882485
C           0.27143713304846   -0.27244066645992    8.94014496233069
C          -0.17625471835188   -1.37816039964373    8.19048142768996
C          -0.00737816658368   -2.64702248106846    8.67516008532435
C           0.62371311831440   -2.86613441902026    9.90888258194762
C           1.07713257618627   -1.81048525107191   10.65326921899295
C          -0.29479515142455    3.75640372604372    6.16483592625376
C           0.13992910481353    5.08730880126519    5.90839746664572
N           0.98010741246315    5.74349533033912    6.68792900755084
C           1.14376143674041    6.95891048517579    6.11638424264723
C           0.34836285839891    7.08550322620999    4.89480243958967
C           0.51576691213497    8.41772674477085    4.30094619856027
O           0.00326066616801    8.86558839436074    3.29578011320014
C           1.45919529106463    9.06805259411026    5.23213195810074
C           1.82089305648149    8.13719417952068    6.32393938843909
N           2.69457089374597    8.71941976622423    7.17986448053755
C           2.88905600828202    9.92449367162196    6.70404081821159
C           2.14801818725445   10.20827961911235    5.48781239706503
C          -0.29061386447117    5.87709063644871    4.72988794456084
C          -1.16373207764090    5.40796817260823    3.72756092266291
C          -1.61294514252993    6.14858897666927    2.67483452661032
C          -2.45443921818320    5.60404218121692    1.68945540016628
S          -2.85282956355134    3.91644384169561    1.69783841185590
C          -3.84776623041282    4.04439380296009    0.27505851084460
C          -3.87306458969218    5.38227036897734   -0.18544149770356
C          -3.07533462198185    6.25484520371143    0.60537614471836
C          -2.98734320727440    7.61540480314431    0.26293423161018
C          -3.66634835944868    8.10015921924259   -0.82151925920138
C          -3.59812245897832    9.53770764862129   -1.21728448189745
C          -4.47051458104925    7.21866951241251   -1.60868645601716
O          -5.09633880739694    7.80847047316043   -2.64913111630491
C          -5.91951885775524    7.02878166775579   -3.48615359333476
C          -4.56848171800441    5.87928428766865   -1.29408864348193
C          -4.47331163444084    2.91601303578016   -0.25381004433949
C          -4.28545934610362    1.65096265129448    0.24606078510312
C          -4.90743986111757    0.51340831308752   -0.28277192639762
N          -5.72094750297728    0.56380991416802   -1.34865085637491
C          -6.06439935966305   -0.69894272151538   -1.61381083266416
C          -5.41172813711014   -1.63376875418730   -0.68467770499640
C          -5.80326648061528   -3.02511752254832   -0.95785501153431
O          -5.44600690216920   -4.02544074437515   -0.36955792666086
C          -6.71435245224334   -2.87242166465584   -2.10026548471399
C          -6.84475730646682   -1.44818262177937   -2.47435650097628
N          -7.69161418560394   -1.30279680457855   -3.51538191615421
C          -8.09667392603202   -2.52305444741038   -3.80189756241323
C          -7.53198104650137   -3.54510966146725   -2.95712149669260
C          -4.69190095247977   -0.87303005680899    0.19145951521164
C          -3.96365819735291   -1.40503025775579    1.30001870722655
C          -3.73346030329964   -0.83574712118833    2.49997949042303
C          -3.06696028118779   -1.52682031403567    3.56101806691001
C          -3.03865875836828   -2.86021333445587    3.79826276996415
C          -1.98836029506795   -3.42030974797599    4.69904100730812
O          -1.30711850754287   -2.79001051055392    5.47893766042369
C          -1.94477765500715   -4.85861104342434    4.39578899493001
C          -2.99238794058194   -5.18251691911064    3.53343545674065
C          -3.79214174940388   -3.98965929797036    3.26998712207457
C          -5.09385501172595   -4.00021933299277    2.85423745703477
C          -5.91614986185234   -2.85672553390022    2.77900537114596
N          -6.64435769571072   -1.97061653348821    2.73870759097821
C          -5.81769459966481   -5.17465503459514    2.54969377133007
N          -6.46513130189427   -6.09662660560069    2.33471487558318
C          -3.15394161916725   -6.49386065049064    3.06709321077504
C          -2.27799010442043   -7.45629970098527    3.49604849087589
C          -1.21855934307379   -7.16626360581235    4.38494856871098
C          -1.02799083353697   -5.83102930558160    4.84314496531606
C           0.04955190939466   -5.53994014728899    5.70338840230206
C           0.89208028354694   -6.53623702319028    6.11326761533367
C           0.69905593437585   -7.85699699762533    5.67850449062305
C          -0.32875577052260   -8.16503144458901    4.82985258715896
H           1.52901178738596    2.73530684234298   11.13578056972453
H           1.85222072511129    0.42498361757903   11.89551184135948
H          -0.65241599670571   -1.21784392061995    7.23657509872219
H          -0.36757584176451   -3.48816465621869    8.10341237493516
H           0.74911493690503   -3.87671244853638   10.26908350368566
H           1.56295628936289   -1.97463067488221   11.60422196615411
H          -0.68661428845046    3.20238206569965    5.31813754157105
H           3.55115061587374   10.60721293288874    7.20747307046157
H           2.17264895691141   11.13272330632208    4.94545884630620
H          -1.49837942176947    4.38134352385673    3.80640228605031
H          -1.32238428329021    7.18641450970828    2.58434787753261
H          -2.37927888659242    8.27769869675928    0.85911430336710
H          -2.95136937751281   10.09389388260510   -0.54539166898179
H          -4.59495021393230    9.97565573878395   -1.20306432967449
H          -3.22292442881063    9.62669197486263   -2.23553942721710
H          -6.30848482263825    7.71521719724313   -4.23608318542059
H          -6.75287333752344    6.58880577323046   -2.93060461067417
H          -5.35112748877622    6.23574078489384   -3.98093306945057
H          -5.16970797237309    5.20558560938826   -1.88122774493749
H          -5.13312090066278    3.02878520129674   -1.10181744825218
H          -3.60367719977391    1.51056048170115    1.07281197761383
H          -8.79021861957989   -2.68617653400930   -4.60863252223688
H          -7.73629276582542   -4.59543388471452   -3.02220998495031
H          -3.63448991980605   -2.42637767158138    1.14412913087065
H          -4.02705988788071    0.18490713563519    2.70003796785848
H          -2.46618262663426   -0.92235315524549    4.23501525186229
H          -3.94222832760118   -6.73752502894901    2.37376863155254
H          -2.38819431309656   -8.47330151578317    3.14837782867842
H           0.19572620861497   -4.51907158496353    6.01966017562755
H           1.71655961403241   -6.31185513624846    6.77390617487356
H           1.37480188769151   -8.62915140043414    6.01544906015447
H          -0.47368214106512   -9.17928696638801    4.48703145943982
