107
 SCF done       -198.120659826368          0.000508648668
C           3.54403585940142    5.11216113843003    2.22051600201270
C           3.45651367415854    6.20746159110033    3.23404453742263
O           2.76636633203895    6.18316555223270    4.23007034353362
C           4.37382272747224    7.24231339822698    2.74738367190847
C           4.84179999021826    6.89270873029863    1.47520402248697
C           4.19888976623187    5.65897814277392    1.04200290144819
C           4.06336737577571    5.21158946391959   -0.23900630298416
C           3.18864290151780    4.16305202159455   -0.59922860306073
N           2.42815766510036    3.37406008888943   -0.93941107511767
C           4.67780724085169    5.81712744414119   -1.35693912832669
N           5.15550640788849    6.27542080956936   -2.29326926924992
C           5.76737487528791    7.70538739379655    0.80858799924892
C           6.19641972084163    8.85365427132008    1.42235223707672
C           5.72895429523046    9.24626043014362    2.69657635795944
C           4.79150838483900    8.42557937940690    3.38929303052336
C           4.33024770592307    8.81881764277537    4.66131171805770
C           4.77833861181534    9.98245658536640    5.22459202554762
C           5.70108825409472   10.79504132412399    4.54717602020169
C           6.16715217985223   10.43627993485110    3.31151893997988
C           3.17455940442588    3.85654113389693    2.53390108692190
C           3.40587401811405    2.67489728956707    1.74918848070910
N           4.57043014140224    2.44237414439292    1.18629666312945
C           4.46635427971098    1.21557762157007    0.60851976704144
C           3.14745010742120    0.63629721278334    0.84531103353658
C           3.03326018059650   -0.68933196775735    0.21400718599474
O           2.10112376623433   -1.45760769642455    0.23593801878227
C           4.35449248072083   -0.83904545211019   -0.43720126947657
C           5.19911250829042    0.34694502559556   -0.15853832833463
N           6.40658191248307    0.22725277664942   -0.76524512199928
C           6.36056982470152   -0.91896976813933   -1.39469125349497
C           5.10273974170674   -1.63289695777957   -1.24009343205466
C           2.43161752563212    1.57228369955539    1.55553702706623
C           1.07817041482163    1.51481477651698    1.95751054860467
C           0.36810833437573    2.56152102673579    2.46010798091149
C          -0.96593258881332    2.50187645738700    2.89826925807531
S          -1.95682949643874    1.10555675321631    2.68411311266083
C          -3.31105678980838    1.81713408002894    3.50333388966287
C          -2.99041020526471    3.12581060600625    3.94032641237647
C          -1.67022883873532    3.52062805280328    3.58370576176668
C          -1.18986631722504    4.78483768482041    3.94351836340146
C          -2.00275198270190    5.66017734612252    4.63943594456708
C          -1.55916182613419    6.98757188561948    5.04466175718055
C          -0.30532478763382    7.42684533325308    5.07029474185048
C          -3.32131635011749    5.26042053693244    4.96316032426916
C          -3.81408520771111    4.02716842539905    4.63343042211209
C          -4.51948879367703    1.13537064365377    3.72684292003143
N          -5.41315944225875    1.63761633725594    4.58817581513239
C          -6.42200869916147    0.76429194145109    4.63274365613109
C          -6.18104894206845   -0.38743897387503    3.75248749667586
C          -7.32387650485478   -1.31931489703153    3.81248440269438
O          -7.46056729063301   -2.38870314604458    3.25110806002315
C          -8.24737093419786   -0.64592188508951    4.73115775631051
C          -7.66011661820825    0.61398171388142    5.22352321200610
N          -8.51307791688969    1.24847745578401    6.05594122131360
C          -9.58128604612082    0.48006111600270    6.10188424100288
C          -9.48605892523985   -0.71084524572784    5.29250714669031
C          -4.97525345101245   -0.15071543542652    3.13624077923490
C          -4.35367463824755   -0.88143543499177    2.08286382792527
C          -4.88364651123977   -2.02701355168181    1.59510922447111
C          -4.37066674487251   -2.72914623328736    0.47160166307542
C          -5.07295357317853   -3.64676104072488   -0.23935854677975
C          -4.40481322322833   -4.60686966040973   -1.16218449163237
O          -3.28269750975573   -4.50829672504020   -1.60620883687028
C          -5.38328757241014   -5.69411062441202   -1.34926439090977
C          -6.58303178500837   -5.36016025720819   -0.71728775965199
C          -6.47395578898114   -4.01701730545922   -0.15785599523127
C          -7.51482045256927   -3.18727911370834    0.15506297755355
C          -7.38003206695705   -1.79781224064904    0.37353786164335
N          -7.34714347170934   -0.65479917040370    0.47141576821335
C          -8.86843878748739   -3.58557743546998    0.16825762315805
N          -9.98336782591242   -3.85609428507392    0.19248131977608
C          -7.66472536646136   -6.25044267004405   -0.72223152964420
C          -7.52681452834947   -7.45005431673003   -1.36997053907673
C          -6.33492988034232   -7.81027032877563   -2.03710654090571
C          -5.22412012885518   -6.91735140337443   -2.03004560010924
C          -4.03542627274766   -7.28293300087010   -2.69378688948743
C          -3.95249708636258   -8.48389458628633   -3.34306290267852
C          -5.04428812780848   -9.36650029642037   -3.35507660690837
C          -6.20875014268886   -9.03902411529606   -2.71617915219715
H           6.14418929020437    7.42787266874374   -0.16232383430833
H           6.91398454579702    9.48946227654272    0.92438331934624
H           3.62332241163260    8.18676484885730    5.17514631555877
H           4.42414097025826   10.28414787115909    6.19880938079004
H           6.04212111788520   11.70839269942680    5.01116461990614
H           6.87716972589487   11.06014077961478    2.78862723586340
H           2.71500127041095    3.71045580246088    3.50669807923907
H           7.20945629841262   -1.26333363113153   -1.95956831644562
H           4.86744172437148   -2.58117479522761   -1.68107995912382
H           0.59454202496609    0.55453010678140    1.82591213424119
H           0.84103671363891    3.52981454360512    2.54157309245276
H          -0.18971343664118    5.08086528950851    3.67094629765745
H          -2.35495139323468    7.64645800231640    5.37000938026029
H           0.54119101526969    6.82078871692846    4.79539101923178
H          -0.07811759441449    8.42844627507194    5.39379793080968
H          -3.95209558352030    5.95575960934544    5.49738016190886
H          -4.81298180558301    3.72166775407975    4.89740797983501
H         -10.42370114102288    0.76143953215610    6.70960318067157
H         -10.24668306880914   -1.45851729935061    5.18502481690039
H          -3.48561480189826   -0.45347683513415    1.60173220013801
H          -5.75893949843641   -2.44228518858877    2.07609044223814
H          -3.33838235334115   -2.56849760572958    0.18061654257448
H          -8.58344477652404   -6.00242025864896   -0.21603224338324
H          -8.34934571397983   -8.15071663548792   -1.38002361153245
H          -3.20310876599984   -6.59721510836994   -2.67742717797856
H          -3.04248983354147   -8.76234343414477   -3.85328890542725
H          -4.95695040547188  -10.30952637905024   -3.87431299395510
H          -7.05050610556027   -9.71644080380007   -2.72425808241773
