101
 SCF done       -197.604021230377          0.000656588407
C           7.21750375156481    0.87054577101113    7.39656547386032
C           7.66450699721634   -0.25211452401259    8.28682987561863
O           6.93529523753265   -0.99290406592488    8.90462606216128
C           9.12733703394492   -0.26282868994183    8.16370430517063
C           9.54532619203211    0.85280319046811    7.43056636471606
C           8.38768840783031    1.66990744857440    7.08373425991891
C           8.39860773589911    2.99211871442239    6.74678980762958
C           7.23318504997644    3.78779898761666    6.66882714332886
N           6.33740800805951    4.50438051290132    6.69197287449754
C           9.57682421556166    3.74723961457595    6.56115787215945
N          10.50691121278670    4.40030287027873    6.40540047917244
C          10.90152239573249    1.04945084392565    7.14346212024329
C          11.81078851161879    0.13054984489539    7.60061853293062
C          11.42418685914044   -1.00082814338749    8.35315991182917
C          10.04614340170506   -1.21570230489013    8.64865646651910
C           9.66400729193172   -2.35023515085876    9.39175200338241
C          10.61103532130143   -3.23686046842475    9.82757477236060
C          11.96939970546868   -3.02960853096593    9.54129632478906
C          12.36862335398623   -1.93651307297527    8.82092988698689
C           5.95168605472337    0.87498730552184    6.91537092040457
C           5.46996603114005    1.59373529303211    5.78587915023541
N           6.28389270496391    2.17768707993625    4.92131091719748
C           5.49508046605245    2.67569381847513    3.94772052870887
C           4.07876102963978    2.36455472266622    4.19682352795963
C           3.23560067154067    2.92632145625925    3.12766436622395
O           2.03749530626479    2.82802325338108    2.97962068777607
C           4.21844899368951    3.61999081962778    2.27218435597232
C           5.58835109301608    3.42174208471113    2.80176139731966
N           6.49875007287562    4.05696687434004    2.02298133263900
C           5.79871330058779    4.63462115920147    1.08058771505703
C           4.36540562232510    4.40794757314217    1.17966197393504
C           4.04381206945540    1.68139381138694    5.38642406300186
C           2.95089232627555    1.16950611418942    6.14198616444959
C           1.68918049851376    1.11805262822494    5.65843851915088
C           0.55440030460999    0.61048724841490    6.37399946693078
C          -0.65157594847506    0.42887449709460    5.71161022264260
C          -1.78205761058410   -0.08872867747166    6.34382799401457
F          -2.88680907158804   -0.22380966107359    5.60271006930187
C          -1.83307831471887   -0.39499057904654    7.69615745298433
C          -0.62838039576677   -0.19200462475593    8.41121100527830
C           0.56828622638383    0.27241729267260    7.75696343432609
N           1.59217565578267    0.33361905208677    8.60749512086561
S           1.10606527154114   -0.14342206656858   10.06353694405898
N          -0.42305521034095   -0.45163447146221    9.70212919521155
C          -3.00689390567609   -0.95743011619398    8.32495595451066
N          -3.64983234458375   -1.96291322990961    7.77824612297653
C          -4.65085190356984   -2.27351324511850    8.63583624498445
C          -4.66327079964829   -1.35794370617690    9.78881851494489
C          -5.76271194820818   -1.70645013463202   10.70488630347354
O          -6.10835689939028   -1.14780315979391   11.72528266578683
C          -6.35373367203018   -2.89372421305266   10.06455118235067
C          -5.64990899282769   -3.19628891227958    8.79575871349251
N          -6.19098298516752   -4.28935008148574    8.20136192824931
C          -7.15173667521981   -4.67475489696431    9.00114340044834
C          -7.30738400532080   -3.84937526449571   10.18650303536575
C          -3.60164592830283   -0.50463161941646    9.60699177818332
C          -3.18406146564217    0.61789360157087   10.37244187106539
C          -3.83717182056648    0.98960890380996   11.50033021867080
C          -3.49568051970992    2.11843490070263   12.28576228932867
C          -4.06062086490838    2.42662100182270   13.48185605216791
C          -3.98699234732184    3.80795673461397   14.03767219055160
O          -3.19728156471058    4.66652911259114   13.71123538578151
C          -5.10649043941388    3.88972840508600   14.99202836927819
C          -5.70291615162001    2.63343478473263   15.12385599011565
C          -4.96843666549622    1.66363512251559   14.31727345017070
C          -4.97534405295966    0.30588375136212   14.47842195267204
C          -4.02881878066415   -0.56167266696522   13.88714544059495
N          -3.23576206464705   -1.29595926643578   13.50255292938324
C          -5.83941791404397   -0.38047755126126   15.35811163017753
N          -6.51848696642612   -0.98445286816867   16.05883100209226
C          -6.81919200170814    2.45645073756715   15.95111995125913
C          -7.31107136891411    3.53865211810430   16.63326261234127
C          -6.72475760321738    4.81970484848762   16.53250600105790
C          -5.59143512021928    5.01356084733101   15.69014145993174
C          -5.01484502009695    6.29563371535980   15.58702134034785
C          -5.53873686016959    7.34370215789880   16.29277098884022
C          -6.65356031702872    7.15804739087898   17.12570427324129
C          -7.23425054002675    5.92501834833512   17.24361602606582
H          11.22405156877004    1.89849357533588    6.56332331466181
H          12.86069315315935    0.26430925594694    7.38381548603405
H           8.61779695521589   -2.50130279404128    9.60561232167131
H          10.31755198812583   -4.10598953957210   10.39677298389785
H          12.69941567542101   -3.74249162025500    9.89446535544257
H          13.41353129880945   -1.77461725817307    8.60003342313394
H           5.26445865025524    0.18000665130093    7.38511936760195
H           6.28848295015983    5.21369066084850    0.31700194340099
H           3.62612794881843    4.79812692294264    0.50858711304058
H           3.15238690468362    0.80907022493409    7.14012417220998
H           1.49145596780683    1.46323576834788    4.65176148344017
H          -0.72806970763025    0.67593242703113    4.66357280836734
H          -7.74994780104165   -5.53543435955441    8.75658339016533
H          -8.03236078531676   -4.00116159937093   10.96147485608180
H          -2.31776348868432    1.16820620280332   10.03499138843175
H          -4.70073209127948    0.41600077990263   11.80538568554441
H          -2.80006628234429    2.84280350722637   11.87618067714866
H          -7.29146182663259    1.49162521449600   16.03923038064190
H          -8.17524167334473    3.42145496240774   17.27118279358315
H          -4.15939461233277    6.42715421067762   14.94347662920502
H          -5.09658073607087    8.32554479206247   16.21299997623965
H          -7.05086095099413    7.99962266019637   17.67363386807196
H          -8.09224042794156    5.77947895238775   17.88395224851171
