158
 SCF done       -242.269092450335          0.000696593486
C          12.83546716698990   -7.71923989930992   -2.57430523386238
C          13.37523141377611   -8.33267725811295   -3.82042094790386
O          13.19006152661871   -9.47073217380598   -4.19334234734347
C          14.11348399582717   -7.24870573732900   -4.49457042787295
C          14.15094028521026   -6.12625817897631   -3.66635882972658
C          13.49828056662643   -6.44112357312554   -2.39977171088314
C          13.69172793670283   -5.78594135785175   -1.21359362648323
C          13.25899061461036   -6.28345169652572    0.03405564153796
N          12.99804183929679   -6.66544651130390    1.08422831163095
C          14.42377300097324   -4.58856026224115   -1.08121249011599
N          14.99267096325281   -3.60443974100476   -0.91986014182236
C          14.77252571626573   -4.94502564934325   -4.09311643000699
C          15.34645810393313   -4.91549982863180   -5.33692592951116
C          15.33778937663459   -6.03787167482542   -6.19436769477296
C          14.70571861100527   -7.24353264420159   -5.77253605172457
C          14.69760281287331   -8.36074302095929   -6.63233759096016
C          15.29388942647276   -8.28674843485661   -7.86077327103299
C          15.91818337055983   -7.10148974501014   -8.28154263011981
C          15.93997225415474   -6.00178720394007   -7.46844114798759
C          11.83319972582263   -8.32515510513958   -1.89680664210453
C          10.94781373692959   -7.76045963438775   -0.91249182661710
C          10.42644620721804   -8.58803505878273    0.09328580451502
C           9.58275194726239   -8.05416283814967    1.03362046419170
C           9.19991661794293   -6.70236001078817    0.96740660199637
C           9.67719284998227   -5.88614202926774   -0.04876189265468
C          10.55343857521873   -6.41651256054941   -0.97181182698035
C           8.28167301992274   -6.43083745135393    2.05230147433168
C           8.10093147784538   -7.61325964551770    2.78912169041269
C           8.93694493782933   -8.73288895678934    2.21706206360229
C           8.06721387521670   -9.92753547259510    1.78663027239773
C           6.98930189716139   -9.54086866020350    0.78088868028798
C          10.00046368091237   -9.20420160374230    3.22850295411151
C          10.91806554310591   -8.08021426851269    3.69435206904907
C           7.24039898456224   -7.64595871813451    3.86012169364388
C           6.53410689879033   -6.49040304544383    4.21167582495940
C           6.73656801141611   -5.31551293988700    3.48356079321001
C           7.60678352970639   -5.27348610730602    2.41082358828740
C           5.56771045332117   -6.54125062995816    5.31387731140861
C           5.83232169230326   -7.26193150501375    6.44619300295774
C           4.85321229245689   -7.37085043382315    7.46084104049138
C           4.85469231482265   -8.07795724729442    8.65064602232794
C           5.97853803423321   -8.90846452566224    9.17878751631479
C           6.29734311706606   -8.61047182439780   10.65385420414928
N           7.71789433606497   -8.79930235734720   10.89108813159338
C           5.69219583935714  -10.40413595485814    8.95228173160078
N           5.73854070178313  -10.69451487218165    7.52972134468607
C           3.54102985027572   -7.91690521903711    9.23182842765045
C           2.96106826524908   -8.46356600275849   10.31592735118281
C           1.53323115338185   -8.20932970628539   10.66102734125030
C           0.84645230169583   -7.21525571611354    9.77781052490060
C           1.43560795648840   -6.67789266408938    8.69384740898728
C           2.76350722358992   -7.02501165533188    8.35323164957165
C           3.56986937951194   -6.70587228313134    7.28024751956528
C           3.34488149548793   -5.93584605487586    6.11531617773096
C           4.31484060131844   -5.86072548423909    5.16952390706791
C           1.40994446638589   -7.79402562415767   12.10500943954626
C           0.74113134729475   -8.50409854274814   13.01150358214383
C           0.52623814598379   -8.18027663586376   14.41182872190026
C          -0.19555997386266   -9.09358896244838   15.19199831071675
C          -0.44380552560258   -8.81906630629816   16.51462181531605
C           0.02009219742426   -7.62636335841719   17.09331631564461
C           0.74392275463676   -6.71812739317757   16.33418124766910
C           0.99030704508080   -7.00147315552522   15.00498545253453
C          -0.40162695116419   -7.59466505966573   18.47798276771218
C          -1.12710841332772   -8.76795898117275   18.74996252510368
C          -1.19693404341037   -9.64856192759222   17.52627893003942
C          -2.65157645944950   -9.89415175636540   17.08557877755488
C          -3.41421795067895   -8.60191468821787   16.81831562383278
C          -0.49581393020298  -10.99801820596373   17.77642840260233
C           0.95347094020526  -10.84225261073019   18.22079356272500
C          -1.66417340438282   -8.98579723220783   19.99346867633854
C          -1.43900508230546   -8.04897018103157   21.01185396477374
C          -0.72561137723379   -6.87746981130368   20.72623395092070
C          -0.21669269742665   -6.63845731839162   19.46653227780388
C          -1.98729002441598   -8.29453674445253   22.32221988883323
C          -1.48464023983683   -7.93419738773967   23.52366244748823
C          -2.35604599006070   -7.94562253550399   24.73422090268097
O          -3.43604851588358   -8.48670719785950   24.82774018164396
C          -1.64201643322919   -7.12711659449347   25.72970316534946
C          -0.38786166566471   -6.77307185399126   25.22878894641510
C          -0.19807714689681   -7.39404964381303   23.92308589813620
C           1.00567691517780   -7.64088882503022   23.31997759104478
C           1.16402544946549   -8.48636267501405   22.20183436507383
N           1.37391803289075   -9.21722483348054   21.34222569609362
C           2.24299016532205   -7.16194580984879   23.79695501010252
N           3.27347045099123   -6.78185473541548   24.13080125514059
C           0.47645381076012   -5.96296802090549   25.97778666505780
C           0.07017924327287   -5.53305959703343   27.21353207920115
C          -1.18447037266537   -5.88800275390009   27.75706694238058
C          -2.07484695152338   -6.70565049571783   27.00222163244010
C          -3.32662223732433   -7.05624526704959   27.54751810923778
C          -3.68074196129493   -6.61665319281376   28.79322525371060
C          -2.80724364826156   -5.81152686323789   29.54165353826106
C          -1.58747039031752   -5.45386443220283   29.03606782761725
H          14.78875131976659   -4.07139571924349   -3.46171405677606
H          15.82433375772909   -4.01085257250734   -5.68449739809058
H          14.21439756655703   -9.26530713623393   -6.29827790793517
H          15.28830280280169   -9.14306872926139   -8.51857876449544
H          16.38222520398518   -7.06503923147441   -9.25616410108582
H          16.42020245769229   -5.08877729083887   -7.78990855378443
H          11.64071587025961   -9.35532576066113   -2.18176616488018
H          10.72660380826801   -9.62487424315065    0.13325457511822
H           9.37011296121827   -4.85337139065416   -0.11818083821027
H          10.91267525545110   -5.79950322229520   -1.78360993643512
H           7.59726670187081  -10.35435239067199    2.67499386625205
H           8.71269542394826  -10.69290964427585    1.35068282667439
H           6.32308173640060   -8.79143539715609    1.20255006332866
H           6.39873427752480  -10.41316034704272    0.50986003553267
H           7.43539110183551   -9.13253154262390   -0.12346061966298
H          10.59896086770950   -9.99033568296913    2.76318716577739
H           9.48769909586794   -9.63830504314734    4.08994428266040
H          11.46869450421424   -7.65503244041009    2.85909276902629
H          11.63461288888873   -8.46365847999710    4.41700749466247
H          10.34376886694168   -7.28750943926015    4.16898842651800
H           7.07931489668441   -8.55899347417957    4.41434340367538
H           6.21443930783573   -4.41689761808692    3.77838284734635
H           7.75282630061117   -4.35570988608869    1.86063286033027
H           6.78395171974368   -7.75555043459994    6.57271674678748
H           6.87950291769259   -8.66441464212145    8.60938663558826
H           5.66476404664497   -9.23372587309967   11.30897795722854
H           6.06905408680789   -7.56204736245052   10.86584925584324
H           7.98201209448204   -9.76308035655098   10.71668434707386
H           7.95254144075834   -8.58082562097910   11.85292872886256
H           4.72470982147025  -10.66071962421264    9.41919203295997
H           6.46989305923891  -11.00629972931475    9.43262575061350
H           5.06475839213928  -10.11366850946387    7.03999155983454
H           5.50119260982335  -11.66505125446739    7.35567535433815
H           3.49067062330093   -9.13201953826116   10.97997741573975
H           1.00710462835934   -9.17277702022681   10.55444948869262
H          -0.16595098507573   -6.96222497362307   10.05451735078112
H           0.90025852379279   -5.97991824338553    8.06583327344954
H           2.39826169265309   -5.43191188479598    5.98294484036963
H           4.14143898772137   -5.30480602121145    4.25973413191638
H           1.89299367059874   -6.85933854958166   12.34739138705775
H           0.28331245617508   -9.43615702336012   12.69717198889974
H          -0.55455502127719  -10.00932165209322   14.74318437370749
H           1.10843176192103   -5.80102050046337   16.77247317520726
H           1.54839315091847   -6.29343182064538   14.41221835979575
H          -3.16266883805761  -10.46291155520746   17.86506882007263
H          -2.64407821518255  -10.50397173449266   16.17967437133773
H          -3.45444039654905   -7.98691198532846   17.71470672839303
H          -4.43245461597216   -8.82500835283413   16.50792456518653
H          -2.93194258987862   -8.02706414173184   16.03061685179566
H          -0.53500707707141  -11.58396441086564   16.85493169924914
H          -1.05238871436310  -11.54252476855837   18.54199991367755
H           1.53190263275121  -10.31212229550354   17.46703072666113
H           1.40167152252615  -11.82175574789943   18.37100589575084
H           1.01664775831254  -10.29038640886821   19.15476617270306
H          -2.22222992020993   -9.88381861617281   20.21416413107031
H          -0.60671378218003   -6.13330141567821   21.50134396189418
H           0.31902093990887   -5.72451969902429   19.25844211354674
H          -2.95300865140812   -8.79025560312533   22.35475922396622
H           1.43785133021184   -5.67273951250169   25.58588881229600
H           0.72190633488362   -4.90330036078143   27.80186793317153
H          -3.98909661333412   -7.67513264335378   26.96322858282386
H          -4.63868286326795   -6.88746207518163   29.21150876047669
H          -3.10751766942005   -5.47529101308833   30.52309283133999
H          -0.91361433235146   -4.83445027351696   29.61024987064968
