127
 SCF done       -220.294041941299          0.000485559294
C           2.53685721073507    2.61222361705246    1.80351752212176
C           1.45762104870697    3.56228499129805    2.22803728012523
O           0.29292528870871    3.27946943992680    2.39110490840844
C           2.15342694250168    4.83625574088868    2.45215801023090
C           3.47996182819700    4.72922157876990    2.02196314451825
C           3.70279274987700    3.40433826693099    1.45562116657656
C           4.69250078177921    3.04578595401637    0.58779745202718
C           4.70755719157746    1.81534502453462   -0.10697264318303
N           4.71589632650869    0.87493061118417   -0.76418631672061
C           5.74334749459023    3.90195023220422    0.19436087440109
N           6.60843835763056    4.56672348170552   -0.15994994999928
C           4.36468632192646    5.80546813847455    2.16286192997609
C           3.90311452590731    6.96666349479042    2.72672573168624
C           2.56726013547018    7.11201347256028    3.16322000443397
C           1.65698000080231    6.02319846769875    3.02835933950647
C           0.32804674660584    6.17006568636178    3.47324022866704
C          -0.08401991467771    7.35083149506446    4.02875745422619
C           0.80726141714340    8.42688571701473    4.16257596550644
C           2.10361475791689    8.31178086562077    3.73930113616596
C           2.35902244170416    1.27958074710669    1.95691073810531
C           3.37895525788977    0.28583088259249    2.00402237872672
N           4.64886326619173    0.60124115043010    2.19943247871170
C           5.30730541131157   -0.57222530768825    2.30494019016799
C           4.38714151294056   -1.71275677003447    2.19501715951060
C           5.12710828143933   -2.97735532212487    2.31209418645977
O           4.69805769401796   -4.11129275955198    2.33012265118736
C           6.52841502632265   -2.52347299850516    2.43155896272472
C           6.58656889905426   -1.04512552650579    2.44408108793629
N           7.87014741864067   -0.61670634468800    2.54683007453731
C           8.59193217724889   -1.70742645937978    2.57885855903400
C           7.81744274691213   -2.93571190794443    2.50244633077714
C           3.14246599131719   -1.17653016006176    1.97233567251033
C           1.88802480134304   -1.80047084788338    1.71473396867695
C           1.69829913956934   -3.12877331038464    1.86694609795772
C           0.48010861704032   -3.85246032389792    1.60098831665510
C           0.30556249874655   -5.09688024079085    2.22933022269241
C          -0.83160928489815   -5.83387356853505    1.99983601069588
C          -1.79907937224210   -5.34680698635782    1.09684990867463
C          -1.63556654180363   -4.12104362152191    0.46334382473014
C          -0.50704513153513   -3.37538472360572    0.72841659315668
C          -2.87077418395804   -6.30857524560661    0.99666190665060
C          -2.59756478930829   -7.36723871563868    1.87964583868948
C          -1.27739062821104   -7.15267390213722    2.59608844278573
C          -0.36047383312056   -8.35895343347832    2.27491467790699
C           1.14018000679827   -8.09923378292554    2.22033272182856
C          -1.59603772181244   -7.01545357504228    4.10303939762925
C          -0.41232071775958   -6.81665643962303    5.03906228643010
C          -3.47211722015485   -8.41819273830338    1.99449381162681
C          -4.61749858788291   -8.46215397014151    1.18068635844612
C          -4.86542274781783   -7.40597775426041    0.28899419447007
C          -4.01419724540701   -6.32550059313726    0.20553547453589
C          -5.49561976880244   -9.59373691045115    1.29056802319317
C          -6.32957608210810  -10.05439967452416    0.32654582571421
C          -7.14413542886717  -11.19594575323000    0.53882892368445
N          -7.32315999827302  -11.71743209189549    1.74821638954715
C          -8.14867605607997  -12.76222168759185    1.58400173980658
C          -8.49873863659033  -12.95680642657503    0.16494301742008
C          -9.39695609320352  -14.11526574916282    0.01357874909927
O          -9.83889319508323  -14.60224101210145   -1.00843256000148
C          -9.60044663859939  -14.55107276916454    1.40114330871058
C          -8.80937085809414  -13.71383084231280    2.32644829355444
N          -8.98865792035791  -14.11540195465201    3.60592435337155
C          -9.83143533236214  -15.12048835507675    3.53455338064628
C         -10.25531109356807  -15.44331134852945    2.19099344812924
C          -7.86734297747679  -11.94690982100502   -0.51839080293726
C          -7.83612899616906  -11.66729176707885   -1.91292319503920
C          -8.44600220812396  -12.47179969274082   -2.81618166885262
C          -8.40983260252708  -12.27221667429353   -4.21882426469136
C          -9.13457912106981  -12.98676188551773   -5.11820977747858
C          -8.73967168686873  -13.05334287294194   -6.55265239726744
O          -8.00288890521599  -12.28196270483346   -7.12762112271387
C          -9.38148347033650  -14.27826140163213   -7.06272020375150
C         -10.21646195195557  -14.81443861159070   -6.07986082325003
C         -10.20611296741000  -13.94168531697854   -4.90991746161520
C         -11.15343628466031  -13.89203598073479   -3.92506285018164
C         -11.25563181882544  -12.83780783952996   -2.98902771306879
N         -11.42899071057189  -11.96297669986864   -2.26717962402295
C         -12.21888202414272  -14.80947704819622   -3.80730207015112
N         -13.10282265071207  -15.52858025375373   -3.67269665161641
C         -10.91597743863255  -16.00600437979191   -6.30964620071638
C         -10.76571845676431  -16.63481491279531   -7.51808917476162
C          -9.93578862312189  -16.11594450491079   -8.53648721517571
C          -9.21878077045431  -14.90441840685684   -8.31444998526354
C          -8.38654654575648  -14.39433735953653   -9.33137643462505
C          -8.26975269796182  -15.05797854185108  -10.52162351158071
C          -8.97442817638741  -16.25134326129639  -10.74621464311909
C          -9.78928699769921  -16.76910736349124   -9.77708834649097
H           5.39176242454402    5.71797723274891    1.84811377940034
H           4.57347710103757    7.80509304217789    2.84872729370827
H          -0.34868445624258    5.33700915868729    3.36717037685527
H          -1.10230797190102    7.46251781232103    4.36969368563003
H           0.46090620684551    9.34912880888393    4.60468740603074
H           2.79125582690490    9.13869470453120    3.84093030956621
H           1.34641733463528    0.95603161820244    2.17173565617775
H           9.66334428529303   -1.64836410877032    2.66222824713848
H           8.22270686387086   -3.92821266831927    2.50803288108018
H           1.07800993779452   -1.15892883646990    1.39637275780708
H           2.52082819303717   -3.72392506390460    2.24320703215241
H           1.08141824271420   -5.44169247100644    2.89289864112161
H          -2.38264774514094   -3.75847095205001   -0.22664349014275
H          -0.36456485102855   -2.42884765894221    0.22993435642951
H          -0.65974617479935   -8.74996646367559    1.29830278869257
H          -0.56448715375747   -9.13865597125538    3.01176023565833
H           1.38361863483934   -7.38954572048782    1.43413411031909
H           1.65035020019032   -9.03468875442999    1.99826556569654
H           1.52599147386615   -7.72368732941699    3.16256076602974
H          -2.13237537253471   -7.91697236163913    4.40853644935719
H          -2.28325560932321   -6.17223492001927    4.21872757044262
H           0.27698698844545   -7.65434488877715    4.98588248338799
H          -0.77693329985470   -6.74763985919936    6.06219397030020
H           0.12118532717546   -5.89845391918278    4.81265368778798
H          -3.27945308481863   -9.23506371889522    2.67427538173277
H          -5.75934762103519   -7.42686045552530   -0.31526106429251
H          -4.22808779096705   -5.50989153892279   -0.46854618604423
H          -5.45205267928675  -10.16273375149813    2.21034690958769
H          -6.36575604898464   -9.58589988607057   -0.64602972711123
H         -10.14470885126869  -15.62869059446135    4.43009812784568
H         -10.93883092843998  -16.22368485158790    1.92077567758761
H          -7.31554675040873  -10.77887195588772   -2.24475915467531
H          -8.96137209777148  -13.35005049400139   -2.45368444701987
H          -7.69158589195355  -11.56745554920449   -4.62373576068084
H         -11.54815771841344  -16.42869168635973   -5.54577334257872
H         -11.29216372039414  -17.55874932456447   -7.70980254021562
H          -7.84901712143576  -13.47754789320631   -9.14737842421468
H          -7.63135551951324  -14.66693898348402  -11.29979525909395
H          -8.86668815768275  -16.75938441523124  -11.69317619805966
H         -10.33291963228280  -17.68716518127523   -9.94763107073153
