107
 SCF done       -213.736607341299          0.000855549458
C          -0.13050876387735    0.87276943999914    6.28479412836886
C           0.33868862879930   -0.00937160469079    7.40985720744443
O           0.28454461441139   -1.21497953537545    7.42221193393842
C           0.89414745667545    0.91993788251146    8.39999423494175
C           0.61469929482715    2.23627216275275    8.01702743609080
C          -0.18021959427916    2.23018455702700    6.79247381939976
C          -0.98528666621948    3.23824871157243    6.34629832053615
C          -1.93625200084728    3.08651250159007    5.31166205028473
N          -2.80158985409323    3.00000981932368    4.56304486703477
C          -1.05706586712304    4.51205872008279    6.95095101403516
N          -1.14878913142350    5.56075579052408    7.40670721566005
C           1.07241232164697    3.31259939128208    8.78613171545901
C           1.78896685279939    3.04921368236881    9.92571362831807
C           2.07488648109029    1.73211889118818   10.34878067642926
C           1.62282849036660    0.62650237021736    9.57000617176766
C           1.91856071137149   -0.68635220017517    9.98764987426655
C           2.63043808363929   -0.89585798989120   11.13786766100314
C           3.07439640550874    0.18808970951456   11.91117013629428
C           2.80418751628722    1.47386907333753   11.52666544202229
C          -0.25241620115485    0.34126967706349    5.04383722806626
C          -0.33597331510019    1.04957667056399    3.81530922701081
N          -0.12885238834935    2.35464827972670    3.73913364726573
C          -0.26369273306471    2.68154637844982    2.44059707747073
C          -0.56268420247697    1.49948677163180    1.61988495848420
C          -0.71201190860660    1.88323485023752    0.20758450493965
O          -0.94378377749838    1.17300739398736   -0.74923621022511
C          -0.49809238969477    3.34038570903896    0.24012743785096
C          -0.21871661960384    3.78501061538554    1.62545506283273
N          -0.00187718919095    5.12049327724491    1.66498136826131
C          -0.12972327570169    5.52638055418600    0.42646335954716
C          -0.43752433557736    4.46491326880188   -0.51613476081481
C          -0.60146704838900    0.43456611871858    2.48870886985894
C          -0.82054628482957   -0.94663322711771    2.24783145982303
C          -1.05745461993731   -1.43283590750505    1.00059399243811
C          -1.26433324984229   -2.78918118673398    0.66256772044148
S          -2.12502857426701   -3.15066002114962   -0.78373314750156
C          -2.10001070130230   -4.86181846329063   -0.52229290799733
C          -1.37436183177545   -5.15290044666930    0.65514309130322
C          -0.88917787115336   -3.98201767458716    1.31624630081822
C          -0.04549510083279   -4.11994999272563    2.42733566900936
C           0.22822210160169   -5.37103861327009    2.92162463620331
N           1.22182152219161   -5.48075955330009    3.96994175763936
O           1.37977795321942   -4.51295893325819    4.67668773088189
O           1.85603290747095   -6.50801100710859    4.01687681652790
C          -0.33940444918773   -6.52293618724923    2.32770605251601
N          -0.20255093961143   -7.83316810686812    2.95591177145675
O          -0.47614077763422   -7.87876109380582    4.13066352524522
O           0.09946255688258   -8.75472861701046    2.24588391461727
C          -1.10692235529683   -6.42337600478021    1.19725130254619
C          -2.75619091765856   -5.79583797461261   -1.35257278709372
N          -2.69768054441348   -7.09364009621937   -1.05317043121401
C          -3.46726617123265   -7.72351508714516   -1.95092478271546
C          -4.08213478921417   -6.77309583875670   -2.88776833978914
C          -4.92237777275981   -7.49212487345007   -3.86741452125483
O          -5.59004442790158   -7.03376471692088   -4.76806762446185
C          -4.74914161900937   -8.89874382819518   -3.47099680851278
C          -3.86162718090748   -8.99636106953316   -2.29122697845911
N          -3.69435162889392  -10.28679168688427   -1.92308206979142
C          -4.39850876216459  -10.98314261136817   -2.78313675770394
C          -5.07849812007150  -10.17905062096338   -3.78056061435263
C          -3.61395962911781   -5.53210644406312   -2.53967637807338
C          -3.89606707332120   -4.26492637162377   -3.13192486421201
C          -4.92370287555766   -4.06696350815032   -3.98889701154375
C          -5.25764107759440   -2.82933932546644   -4.60913202343142
C          -5.04916995075259   -1.54490243387132   -4.22381407719939
C          -5.22671438654303   -0.46858973382976   -5.25165800903333
O          -5.76886730705137   -0.60435663266692   -6.32467360450584
C          -4.57222975216957    0.72103993547519   -4.68787311997095
C          -4.15501926124581    0.44486719939968   -3.38467783862260
C          -4.57841518569682   -0.90159432019581   -3.01270470791943
C          -4.70048996949951   -1.35238426093536   -1.72536768966858
C          -5.31356599274833   -2.56776614979661   -1.35856377153310
N          -5.80109686578723   -3.53652342416609   -0.98273646630610
C          -4.25243125891503   -0.65735707656256   -0.58174641011413
N          -3.87747322492147   -0.19519190230116    0.40056473937938
C          -3.47037296417807    1.41050058916521   -2.63650982497364
C          -3.23522972409650    2.63552704214521   -3.20302606596325
C          -3.66149928015369    2.95487844307697   -4.51087362952792
C          -4.34454698395400    1.97433167545101   -5.28844137401810
C          -4.75997588896798    2.29108208220296   -6.59775848616482
C          -4.51294121278846    3.53294195850293   -7.11496424571642
C          -3.84440595395818    4.50417602601234   -6.35253226380636
C          -3.42747450183402    4.22274755965403   -5.08027495760016
H           0.87681739395976    4.32854508693854    8.48440937574395
H           2.15198655698212    3.86861670195141   10.52904138181698
H           1.57484994112459   -1.51277632735781    9.38595881071480
H           2.85585176427767   -1.90163383337591   11.45843275568463
H           3.63399448616884   -0.00084255243252   12.81503098770892
H           3.14491855149087    2.30925777361859   12.12068578176326
H          -0.19615769228168   -0.74057864836594    4.99813075428296
H          -0.00411778684967    6.56621873827370    0.17955185903860
H          -0.56655800633619    4.59315975914903   -1.57286312034695
H          -0.83354864321161   -1.60269246859682    3.10521268226535
H          -1.15730514442576   -0.72581553690297    0.18583980006056
H           0.44353253326684   -3.26887750990134    2.87398875931942
H          -1.51730448117901   -7.29823308465958    0.71438939902507
H          -4.43892275337099  -12.05586593222366   -2.70878490130596
H          -5.69840188429672  -10.55643914674163   -4.56937654223091
H          -3.23172764299133   -3.44419849580211   -2.89848697324402
H          -5.51845396806664   -4.91808024395881   -4.29562486309141
H          -5.73649516672093   -2.91898637161329   -5.58147392716519
H          -3.10792018549939    1.19189584646130   -1.64664779226593
H          -2.70731682451912    3.38798540089397   -2.63601467097067
H          -5.27306054687308    1.53745593021526   -7.17396962560566
H          -4.83237752687834    3.77601105701493   -8.11716611563198
H          -3.66117864985313    5.47857687716811   -6.78058445812376
H          -2.91442194989856    4.97009855483359   -4.49225455144454
