106
 SCF done       -196.464661860826          0.000559446001
C           4.16331521540973   -2.34243597821134    2.08707621775380
C           3.94270490547916   -3.25871390419362    3.25169801012658
O           3.08285816957812   -4.10691633530436    3.32554753434089
C           5.01091421370516   -2.92086304639569    4.20071479542397
C           5.71394912684244   -1.80280917714809    3.73926982798344
C           5.09990160226837   -1.31515012073913    2.51051586689290
C           5.20171332976649   -0.05451681095875    1.99856362759971
C           4.36648541680579    0.44028219475653    0.97234108448908
N           3.65578217082107    0.91869096340226    0.20900315253937
C           6.06167958726591    0.93955416622303    2.51363410218745
N           6.73965926204991    1.78038109918838    2.89924431714926
C           6.80819878184597   -1.30313030880971    4.45663898034058
C           7.16551053918922   -1.92110320013888    5.62686731417259
C           6.46332315696088   -3.03776168538898    6.13305977561118
C           5.35623369825714   -3.56506562681241    5.40611528920797
C           4.66260230471539   -4.68266570707266    5.91162093003044
C           5.04697230893174   -5.25225142415533    7.09493523539478
C           6.13419465267617   -4.73528130260003    7.81673436504709
C           6.82828526252585   -3.65334398690618    7.34717295199893
C           3.62905640554911   -2.63243254743448    0.88180434804993
C           3.99292586513351   -2.05212937359708   -0.37232914373916
N           5.20228787994738   -1.57259687078540   -0.59503565744151
C           5.18936054120511   -1.12185717073790   -1.87154606049756
C           3.88196309963713   -1.33017291114994   -2.49633148154354
C           3.87840747954685   -0.80118567345255   -3.86557122956771
O           2.97437771429116   -0.80068758600963   -4.67637289735145
C           5.24746200242018   -0.26650709974959   -4.01153432802028
C           6.01600321037181   -0.49179926770812   -2.76862770940351
N           7.27385917136185    0.00102382127031   -2.88675033120083
C           7.32918754877961    0.51117467276000   -4.09129060429777
C           6.09562255660925    0.38114856578395   -4.84808249259561
C           3.09648924128192   -1.94183175976308   -1.54436406211571
C           1.73981081761837   -2.34794579338000   -1.57167152664825
C           0.93868456210663   -2.14886091582944   -2.65108555020758
C          -0.42344932873121   -2.52087628020040   -2.72667461784371
N          -1.17537091090632   -2.20885305754224   -3.83821644732009
C          -2.43989154368590   -2.66572795553401   -3.65133258869083
C          -3.70212435210482   -2.74811708414575   -4.21408731876114
C          -4.50411592119730   -3.44099558801737   -3.28411578358701
N          -3.73753527762253   -3.76969072556588   -2.18122040891576
C          -2.48051289149574   -3.30283737877921   -2.37410650279058
C          -1.22426887614867   -3.20849958046712   -1.79741787573095
C          -5.86501545638709   -3.76402166117137   -3.41895802566411
C          -6.60582234467209   -4.49518033850136   -2.53171853264027
C          -7.97226346011326   -4.76131753893177   -2.74185944830494
N          -8.64488045564718   -4.26149920596225   -3.78222282470810
C          -9.89868790220607   -4.70812041103878   -3.65990238274680
C         -10.06360219731861   -5.54759289511088   -2.45981656612028
C         -11.45025419354000   -6.03789292231635   -2.36087374773057
O         -11.94426408392665   -6.73452033357726   -1.49516760643335
C         -12.08201898424725   -5.46532492193281   -3.55360951026095
C         -11.11242070894191   -4.65443019648497   -4.31523607991325
N         -11.69036605504177   -4.12488138228157   -5.41462911382192
C         -12.93491697135489   -4.55400187366207   -5.38844813368493
C         -13.24462869183496   -5.39570147629621   -4.25956612930061
C          -8.82784467668263   -5.59753534213097   -1.86420318905732
C          -8.39984618141198   -6.30927179630179   -0.70908001827050
C          -9.24080955005668   -7.08227258557472    0.01819718256707
C          -8.83529015671188   -7.85281958636055    1.13712754987358
C          -9.57111251666434   -8.83639371378687    1.71567309947186
C          -9.25663897454396   -9.33536219708349    3.08192168409658
O          -8.21813456351354   -9.16087972959181    3.68316306007058
C         -10.48587867788268  -10.01187907890207    3.53189326983323
C         -11.41481201626891  -10.03741710031253    2.48928051643638
C         -10.81368105382499   -9.45324740653296    1.29378383514098
C         -11.22217060262231   -9.65524651905005    0.00407863732180
C         -10.43022726044843   -9.36026257717333   -1.12860059962696
N          -9.78961710776848   -9.23098781896768   -2.07187574156581
C         -12.41786797161897  -10.31441921255916   -0.35196098141424
N         -13.37818390543899  -10.84199182288963   -0.69278839886984
C         -12.68408373884726  -10.59890292151161    2.67892055077735
C         -12.99190321951333  -11.13312221914486    3.90287888732708
C         -12.06910165411419  -11.14141209869148    4.97215702249100
C         -10.77837468663535  -10.56403889129813    4.79477996613807
C          -9.86245792509343  -10.56995730989505    5.86628121221299
C         -10.21009799396678  -11.12955160402026    7.06485238172592
C         -11.47942717452745  -11.70203932039087    7.24444519685370
C         -12.38911094661917  -11.70758826211621    6.22286007805340
H           7.36603886491630   -0.45699143512881    4.09007605900220
H           8.00877455097033   -1.55031711514669    6.19132000247336
H           3.82895242091605   -5.07258638568387    5.34938262976703
H           4.51358034327620   -6.10698408383169    7.48289142749800
H           6.41986531859530   -5.20022565431129    8.74848623232625
H           7.66505086021636   -3.25358585891733    7.90115938379171
H           2.89280978516474   -3.42881633996800    0.86386727154093
H           8.23390968118994    0.97466728942181   -4.44450387497052
H           5.93875457731016    0.73544934564382   -5.84769083560121
H           1.34251134045887   -2.81654173834550   -0.68312935676337
H           1.35568818130183   -1.66108133035738   -3.52323548587284
H          -0.81844354396638   -1.71018902610564   -4.63634322990522
H          -4.04049016475681   -2.37894359877263   -5.16090220211057
H          -4.07711545457420   -4.25204771659962   -1.36805866361256
H          -0.90517295454220   -3.57967990691653   -0.84521803559155
H          -6.37047825846197   -3.40880115435825   -4.30540007436682
H          -6.15482238937859   -4.90279919068778   -1.63820359533263
H         -13.62146114571626   -4.26789938916351   -6.16637616114248
H         -14.19514460242907   -5.84806053239651   -4.05681943205512
H          -7.35042672120301   -6.27138542283603   -0.44710829086826
H         -10.28489162520855   -7.11475803960056   -0.26065265385536
H          -7.89253639080577   -7.61199985822507    1.61731172685543
H         -13.40969078227427  -10.60056704902387    1.88193647704644
H         -13.96799134050638  -11.56636865593503    4.06744494392294
H          -8.89038603417711  -10.12722978151358    5.71683406512988
H          -9.50732306153752  -11.13497652497784    7.88471208859276
H         -11.73263896038920  -12.13897823853445    8.19913429292368
H         -13.36653113314899  -12.14771058461369    6.35846508265914
