110
 SCF done       -191.090053369937          0.000904572941
C           3.45838753297510    6.89329686755420    1.56007431292383
C           2.88281645141327    8.26405466633493    1.68452455927102
O           1.75143867007038    8.58947249831665    1.40054217931327
C           3.96079454854944    9.08058352344431    2.27098295143178
C           5.12724539708647    8.31964397551039    2.35210925755738
C           4.88824843410073    7.01084008170394    1.74899122947902
C           5.85937084025402    6.20348601465195    1.21903670033370
C           5.61622515116501    5.12354823564010    0.34522409758951
N           5.51579731192754    4.27637108514543   -0.42395151699204
C           7.24417728110029    6.41087011455251    1.38567350243425
N           8.38250429505056    6.50424121737332    1.50087218099418
C           6.29250136670082    8.85778183833697    2.91283301161223
C           6.26566990748527   10.14847265113422    3.37296009930561
C           5.10688116471806   10.95127847494042    3.28983083652539
C           3.91377037062027   10.41229831624369    2.72622752468972
C           2.75813517976280   11.21578721781168    2.64748214536852
C           2.78429603617135   12.50336944811713    3.10731565316856
C           3.95688634012920   13.03981263203569    3.66326382636289
C           5.09229380547683   12.28248148908743    3.75340071531927
C           2.60862528180236    5.83884337931616    1.45402571632339
C           2.81889866758814    4.46100666651750    1.69773289593968
S           4.22164638674227    3.81388787172004    2.51842713111680
C           3.64588945860655    2.19317992220391    2.37190734687342
C           2.39768309147337    2.16241883884620    1.75465618682198
C           1.93745099979823    3.44569246544058    1.40370234337919
C           1.67660873452052    0.95472908974692    1.36826992406903
O           0.53386220563774    0.93431906837081    0.98296163350139
C           4.49146817859611    1.11376641421952    2.81308801251445
C           5.84802679226127    1.24230975688947    2.62546783415282
C           6.71359153199961    0.16964076270413    2.91104958997388
C           8.07752465765148    0.00362154924336    2.73064231150064
C           9.14961225991510    0.93853490143043    2.27410056819999
C           8.68129932498863    2.15588356179085    1.46464005310299
N           7.77641274536772    1.75748489830332    0.40012540716598
C           9.96060284216108    1.42888183456238    3.49560634209383
N          11.12159694023800    2.17664067299992    3.05364591583667
C           8.38047666690805   -1.35301958546766    3.13884258770752
C           9.52965947567654   -2.05021335780898    3.10368565569303
C           9.60452464230121   -3.46771037290479    3.56409418777360
C           8.30841766308279   -4.02995327471065    4.05896328682006
C           7.16206229851302   -3.32488052882556    4.06761153905398
C           7.13881447537311   -1.98802004076621    3.60378878333156
C           6.13227382344102   -1.05906178572425    3.45002754317087
C           4.74234090559460   -1.12697546998765    3.71020493829963
C           3.94406314445567   -0.07599107515199    3.39710882796508
C          10.64102443999496   -3.56417003203911    4.65230496657127
C          11.81034177966104   -4.19244271842152    4.50612764473823
C          12.81332504342294   -4.31375396867588    5.52496561833612
S          14.32842310290459   -5.06876871230159    5.12707248127829
C          14.93672462827079   -4.86036904834668    6.74066774698624
C          13.98764019117169   -4.21412579254933    7.53302598028715
C          12.79774718122301   -3.92448335400928    6.83974570160498
C          14.15866408946733   -3.89389220698962    8.94827653745187
O          13.33906888888718   -3.31437057026758    9.61442817113763
C          16.26695625161186   -5.20917750496395    7.09243431738664
C          17.09741714004680   -6.10492047332084    6.50289857188126
C          18.57233899539930   -5.99437999062366    6.71461579167037
O          19.11685963450014   -5.34779015997576    7.58080660087732
C          19.17248169939877   -6.77680988772824    5.62090260448988
C          18.16586114182919   -7.43124716719680    4.90737779491802
C          16.87910763830009   -7.16510633321864    5.53968787444517
C          15.76208070701150   -7.95086299772195    5.44860619414797
C          14.65361348648668   -7.80946938444850    6.31063285761452
N          13.75811580393434   -7.74976214962586    7.02577168089261
C          15.62665893034891   -9.03661018236543    4.55968004022971
N          15.45574077284174   -9.91594345865774    3.84216086953898
C          18.47656006861941   -8.22160840512918    3.79380281406612
C          19.79003248501381   -8.34638134159532    3.42282025487334
C          20.83420061763120   -7.71253900716342    4.13206769292885
C          20.52944378586173   -6.90022227039240    5.26343845295156
C          21.57499628075339   -6.26790898436509    5.96621326604569
C          22.87206100852210   -6.43709555189422    5.56632873832023
C          23.17825322795184   -7.23717021684177    4.45400338607330
C          22.18328660900429   -7.86038701616392    3.75159381604044
H           7.18956200628333    8.26587654498105    2.99522846626779
H           7.15357080396066   10.57747486626043    3.81465733299083
H           1.86331213138419   10.79234530086846    2.21936440009270
H           1.89930693666984   13.11884588136724    3.04600316307386
H           3.95475774835297   14.05897805135917    4.02045826981822
H           5.99592624450546   12.69351476568169    4.18000425130517
H           1.58106220528184    6.10644999119372    1.22404870675988
H           1.00077369956858    3.60025223336609    0.89807121826515
H           2.27922467483610    0.02903398184102    1.42363923793889
H           6.23145392058965    2.13694377921248    2.17051639295745
H           9.83525987707230    0.36272621322398    1.63815531282763
H           9.58550248360680    2.67470197189380    1.11094487108522
H           8.15864570502896    2.85266570074032    2.12439790986652
H           8.26486304677250    1.19491395563241   -0.28786390521538
H           7.39773004875061    2.56956692903357   -0.07567441555089
H          10.21360027394767    0.55918692542616    4.12684968203046
H           9.33192119832936    2.09931661441292    4.08688259826214
H          11.80067811499264    1.56245539032967    2.61749807222646
H          11.57052935546713    2.64300424117462    3.83212268465892
H          10.45478495652759   -1.62235319050447    2.74154020775253
H           9.95212842094343   -4.07467629538457    2.71461505289682
H           8.34735170776391   -5.04643387773408    4.41902506143465
H           6.24527928150273   -3.77271446994149    4.42226785126799
H           4.32927689583555   -2.02080002347644    4.15378309616963
H           2.88657813152381   -0.10404730605981    3.61243688295801
H          10.37505099156295   -3.08540950120711    5.58274963772441
H          12.05625391485597   -4.65865077409969    3.56016778674721
H          11.96299359958198   -3.45079787614479    7.32265079228652
H          15.11850340033038   -4.22725811240436    9.38338500050175
H          16.72120034007387   -4.61845541191879    7.88235674528590
H          17.69830195306326   -8.71208304154070    3.23183108086153
H          20.04825186992982   -8.94753068535497    2.56308101064890
H          21.32829483321355   -5.65479508191886    6.81854664825459
H          23.67261593323211   -5.95384673561089    6.10597138904195
H          24.20930263870210   -7.35713702583672    4.15636068161007
H          22.41669174401517   -8.47741155180868    2.89606852393901
