108
 SCF done       -220.973882104480          0.000794590849
C           3.60135223234493    1.54336907338753   -1.43880288020496
C           2.69791641012346    2.65694314669120   -0.99363418697444
O           1.49196782690336    2.63219648866334   -1.00169242811872
C           3.61236879850365    3.69504913358494   -0.49758804075039
C           4.93564415419676    3.32995368299610   -0.76571678902750
C           4.95510778048863    2.07498374476085   -1.49747659448931
C           5.99389882875157    1.56696294594977   -2.22439053119113
C           5.89400312767368    0.44951074190477   -3.07502379220951
N           5.88245384732756   -0.43499294491262   -3.80798856147900
C           7.28580834058704    2.13654070141562   -2.27811895052477
N           8.35670405039704    2.53844794705428   -2.36143194903891
C           5.99942531382710    4.13932412882969   -0.34466376062922
C           5.71646672846079    5.29875255093903    0.32792888849168
C           4.39113644012581    5.70470893708617    0.60238387096687
C           3.30001362372936    4.88632729677318    0.18587731850382
C           1.97983507586974    5.29201847066163    0.46845614480609
C           1.74966350270561    6.46495856489977    1.13395606565929
C           2.81997951894489    7.27564574817462    1.54427171167793
C           4.11180316605506    6.90503530166459    1.28552310356488
C           3.13598940338079    0.28808359767772   -1.51004428756629
C           3.90683190884173   -0.94047983095829   -1.60454955828755
C           4.92056846545023   -1.29600071669637   -0.69729564579926
C           5.35525952326122   -0.47707735727842    0.45382549754343
O           4.92627140785513    0.58036448774629    0.81744463887930
S           6.69672085614442   -1.30698381845961    1.29833793831722
C           6.64355965855984   -2.73829842700290    0.21304508932900
O           7.33237315714660   -3.69781704536101    0.35773187022467
C           5.61106651717762   -2.50013566241926   -0.81811908386921
C           5.35594619475224   -3.41517182409899   -1.84303414911041
C           4.35567954551935   -3.05776461336872   -2.74738389632587
C           3.64659808137004   -1.86660381221292   -2.62095977940144
C           2.67554798829337   -1.61725582133882   -3.70141904904878
O           1.97768616359193   -0.66018825258240   -3.84870040288944
S           2.70270083538877   -3.00992690963907   -4.83407048417670
C           3.98632007844194   -3.87162963079953   -3.92181846321897
O           4.44235300114247   -4.92228856652203   -4.25873826865288
C           6.11643240564437   -4.65302011325591   -1.97945726072986
S           5.63337468161089   -6.08027259052405   -1.15460139302175
C           6.97981358598161   -6.96579032281436   -1.82227109185131
C           7.73367053110141   -6.17146793947029   -2.66491317487585
C           7.24675499768298   -4.84518762731930   -2.73364660140560
C           7.87258350045818   -3.76807154775804   -3.55749226345455
S           8.22806533728086   -2.29006364305833   -2.48693628769878
C           9.16821645945847   -4.23210054325665   -4.21485254947422
C           9.02351756147293   -5.66564854114131   -4.71207414833243
C           8.87340542675628   -6.61288182884880   -3.52309093623168
C           7.11322317432907   -8.31943859374208   -1.39971847018608
C           8.19512411867301   -9.10644805576873   -1.55873396987038
C           8.27122844087790  -10.47640702958569   -1.12287908641333
C           8.87951123068018  -11.45136277921033   -1.94185975521922
C           9.47860625683967  -11.16559875671901   -3.25984034471922
O           9.51278945995399  -10.12893186391251   -3.85395108636187
S          10.18976302707094  -12.67713267405565   -3.92381213329901
C           9.69416745201751  -13.65347992042538   -2.51081676243638
O           9.94594973788213  -14.81350786967134   -2.38188265397409
C           8.95707297470847  -12.78592718521924   -1.57116855083719
C           8.44139069746666  -13.26694431188289   -0.36109024076400
C           7.85423634849097  -12.30191772572937    0.46967243552859
C           7.79703835932947  -10.95200041474078    0.11880671012361
C           7.35205658990913  -10.07518902983959    1.22144187325152
O           7.34276824197951   -8.88652527287259    1.29187301254950
S           6.85034418606471  -11.10079432860411    2.62318965436988
C           7.25727818398578  -12.61929761798612    1.78653740023975
O           7.05200609246173  -13.69709093479199    2.26552401782965
C           8.54336652138888  -14.67666187686099   -0.02331410246085
C           9.07239490766922  -15.22437807083332    1.08094061833242
C           8.80964574482369  -16.67004632521378    1.38763107225292
O           8.42889937343704  -17.49875586749218    0.59747610838210
C           9.04680589863757  -16.79361673355662    2.83256460515144
C           9.54711518773800  -15.58839571001980    3.33411886173975
C           9.72811586829942  -14.64265382257209    2.24417904393376
C          10.48699301269086  -13.50722927118954    2.27713234108549
C          10.78313213061337  -12.71277029079960    1.15147193448579
N          11.07658385951672  -12.03468226962516    0.27274799203795
C          11.13246993300462  -13.01442697394765    3.43382606297972
N          11.67311703583377  -12.55593443943204    4.33539262002776
C           9.80319427030274  -15.43819275877640    4.70421177682416
C           9.56813343016844  -16.49937913453364    5.53784416746526
C           9.08314813041168  -17.73754712533324    5.06052465226291
C           8.80548991601585  -17.89927770667635    3.67135466010443
C           8.31367847275359  -19.13377772361783    3.20076701286593
C           8.11088658283838  -20.16898112007366    4.07186988789679
C           8.38578152074144  -20.01610067001089    5.44016580088637
C           8.86011851004255  -18.82756679253657    5.92514078085670
H           7.02055499366902    3.84838986478370   -0.53038942847991
H           6.52421379937484    5.93144677902018    0.66633040158315
H           1.16504962258122    4.66096714980438    0.15070814306821
H           0.73856301336861    6.77589162211525    1.34958967840666
H           2.61501110037854    8.19692069104586    2.06892423073862
H           4.93648014848447    7.52743142637392    1.60090380063461
H           2.05733620589909    0.17240676418285   -1.46678500493293
H           7.15024985902544   -3.41270122552503   -4.29885156115456
H           8.40541695716770   -1.44599145740343   -3.49937751018004
H           9.97513008325335   -4.18859697055951   -3.47967821484324
H           9.42154730027635   -3.55920274068504   -5.03593745743446
H           8.14647258169750   -5.74488382178585   -5.35763738652228
H           9.90200615990644   -5.94580422883904   -5.29363220756066
H           9.79786448677268   -6.60741665714466   -2.93745448937087
H           8.70524337557286   -7.63067384680478   -3.87868202577357
H           6.23813156081128   -8.71747231673635   -0.90227348976246
H           9.05420965746271   -8.74796580817734   -2.10036768778640
H           8.12963585594391  -15.37322724497185   -0.74639673588271
H          10.16338213542593  -14.50261151966723    5.09951374325538
H           9.75539394976680  -16.39851308788391    6.59711885687903
H           8.10433295621726  -19.24001752834865    2.14819488477909
H           7.73599020929933  -21.11492090594855    3.71102758246037
H           8.21818629284647  -20.84663832978833    6.10966670774284
H           9.07180677471275  -18.70758431878793    6.97767232518858
