116
 SCF done       -197.447742750809          0.000477145134
C           4.07318635720986    2.39436025252157    4.01620413077225
C           3.29255538108480    3.37281263754253    4.82233273314835
O           2.27456978412493    3.93205915519053    4.47613483692466
C           3.99407491971029    3.44963868651663    6.11777474092637
C           5.16099424085081    2.68635717517602    6.06083287652007
C           5.31929460117034    2.15703585656226    4.71041526158067
C           6.50746781753241    1.77297726433470    4.14283418340359
C           6.69626037392835    1.66244698473221    2.74835005453734
N           6.91933417551817    1.63494651909909    1.62240560942755
C           7.69385288298909    1.51901865810690    4.85379728355686
N           8.68175627122826    1.23855574582759    5.36984599212958
C           5.99782773555588    2.57643954421085    7.17863996837149
C           5.65139091005941    3.23814335491168    8.32762660229623
C           4.48746424229695    4.03346396171952    8.41319865800484
C           3.62557487599302    4.14800022957222    7.28353887569074
C           2.46566793700945    4.94452122764226    7.37293958434021
C           2.17310419358687    5.60430895239978    8.53438312644008
C           3.01914189456631    5.49614954666398    9.64992093768165
C           4.14946636446356    4.72800314323840    9.59243192632704
C           3.49386230497484    1.81129417321314    2.93256833466362
C           3.85014828322647    0.62587810332362    2.24674430173316
S           4.91047287192840   -0.59486883058592    2.90605989419096
C           4.80217382596383   -1.55363237993707    1.47358673834235
C           3.93124679793257   -0.98416482426655    0.54753505536099
C           3.39045700469626    0.23035528212383    1.00944351183602
C           3.72676768513667   -1.50906448159917   -0.81675082217675
O           4.42301413307514   -2.37264298730885   -1.30052646075520
C           2.59915252573645   -0.87113222826473   -1.59426019951271
C           5.64513734712502   -2.72243373758407    1.39554331971675
C           6.93452176496233   -2.60171043684097    1.85805244644782
C           7.84049793537793   -3.67336591713350    1.73940564036346
C           9.18277705150141   -3.79627029072681    2.06375879984485
C          10.15236276953310   -2.82450252262209    2.64774037437118
C          10.95121688036729   -2.13854605650296    1.51592184923374
N          12.23441801016225   -1.70417871476408    2.03357811503572
C           9.53327333522446   -1.77173341618192    3.58061926145498
N          10.57168810986936   -1.12971257154012    4.37180925963526
C           9.59004278553165   -5.11409048267303    1.61957766899726
C          10.79644182984748   -5.70960455345417    1.62596379451956
C          11.01128726413860   -7.03024523010408    0.97531931222323
C           9.75569947756730   -7.70169477638227    0.49390724393092
C           8.55195079934661   -7.10462466471984    0.53381455361438
C           8.41951049811778   -5.79238216797332    1.04972022065773
C           7.36070015599084   -4.91395015016720    1.13312991506325
C           6.00829340908603   -5.02356625820619    0.72952146411941
C           5.17528210241517   -3.96118871577099    0.85336860273254
C          11.80139697477271   -8.00412384503725    1.80423657274048
C          11.85880921192301   -7.99347656280849    3.13762853492330
C          12.59033553707759   -8.95382506191843    3.91790210807256
S          12.44435032682624   -8.94323362784737    5.65026739308575
C          13.52750645557956  -10.28997084593534    5.80763439807593
C          13.97117247261110  -10.71807464782581    4.56077394849080
C          13.44305897039724   -9.94634281388332    3.50801552356193
C          14.93138850414362  -11.82740991233254    4.42033524121905
O          15.43220490047401  -12.37113623100061    5.37935777330719
C          15.24898121510053  -12.24232897529028    3.00609147514171
C          13.80531502419797  -10.89006796449175    7.06877641974415
C          13.91178534915270  -10.28884293680495    8.27630405595811
C          13.78813341707253  -11.09362241075233    9.52801706719742
O          13.82173586976510  -12.30014406503714    9.60578249730105
C          13.55029547131603  -10.10452529952296   10.59475380616304
C          13.65334005699561   -8.81517160137051   10.06996056229178
C          14.03160703368126   -8.89634245890534    8.66357072572764
C          14.62682664838078   -7.90293902471735    7.93472362103704
C          15.21994132235787   -8.10614299545192    6.67003873609653
N          15.74961056313048   -8.22096121555475    5.65837882678213
C          14.79868651375553   -6.57964200769852    8.39162096593720
N          14.94970830287989   -5.48556809055038    8.70390278592392
C          13.43358016567748   -7.69471612446808   10.88234308122695
C          13.12561137669071   -7.88976920144476   12.20317189645819
C          13.03135228593376   -9.18023581482338   12.76980387650557
C          13.24466459504141  -10.32767570011599   11.95156759620210
C          13.14740524427788  -11.61403648887797   12.52011994111123
C          12.85332741163293  -11.75747124844144   13.84808321442788
C          12.64298198291273  -10.63072080407410   14.65904786953019
C          12.72899095604493   -9.37068615383942   14.13329192064890
H           6.89157035015759    1.97458921207078    7.14061209027676
H           6.28243143372936    3.16063446439435    9.20132709009379
H           1.82370963055059    5.01958942395919    6.50950130135556
H           1.28587963035003    6.21605425847248    8.60161067078080
H           2.76909799383851    6.02662853991925   10.55682736981040
H           4.80229084249424    4.64434476821820   10.44935056222434
H           2.58151684812589    2.28986291455805    2.58847541586069
H           2.72629842456296    0.85075893211673    0.43543773427394
H           1.68313977199067   -0.85684756551451   -1.00875844153190
H           2.44145893722528   -1.42994702123987   -2.51318377646019
H           2.86870400926218    0.15179130704417   -1.85023889325926
H           7.26551136377009   -1.65331520034661    2.24909974218678
H          10.88666950082264   -3.38856205195832    3.23477099383470
H          10.33409508945277   -1.32476219984484    1.10024624854713
H          11.13676332467272   -2.85702490609249    0.70877065879336
H          12.06856666417122   -1.14238867696670    2.86690786519788
H          12.71410556409728   -1.12879063316535    1.34948160445601
H           8.75284087186086   -2.25148801671951    4.19682795848778
H           9.06280543464547   -0.98287685468458    2.98822728984541
H          10.94191819890392   -1.77367969210522    5.06346827013876
H          10.19001127473056   -0.32712585799224    4.86377463265603
H          11.67096430067228   -5.22830695786830    2.04221515904108
H          11.62336284290483   -6.81806907800734    0.07997141903329
H           9.87566963427079   -8.69718732925330    0.09471571166442
H           7.67444686329960   -7.61286974941432    0.16130163398904
H           5.65238479432141   -5.95756963089365    0.32110732547733
H           4.14173679062528   -4.03370686956291    0.55607239177201
H          12.30099993308383   -8.78189049582261    1.24484668244128
H          11.32854343203683   -7.23382123909439    3.69583366580047
H          13.69316193711597  -10.10291958719579    2.47593814918036
H          14.33737748942472  -12.48271488981965    2.46394460556078
H          15.75538639261605  -11.42476655342057    2.49685212806789
H          15.90313944213159  -13.10991506696529    3.02532688921849
H          13.89813656091451  -11.97261462850228    7.06867917608950
H          13.49335596910698   -6.69842199581234   10.47531820078724
H          12.94848527570898   -7.03711146955558   12.84278238122480
H          13.31090663125459  -12.47197471165327   11.88735304556868
H          12.78094259901476  -12.74279457612747   14.28363779825410
H          12.41180690370494  -10.76747116061759   15.70510749224844
H          12.56843097294322   -8.50226506991189   14.75575774321712
