122
 SCF done       -217.953614440882          0.000542458072
C           1.55807840194634   -9.42170622040864   -4.35492134293935
C           0.93470451490994  -10.31179668666111   -5.39284355197346
O           1.16117493265775  -11.48951858496608   -5.54004367752433
C           0.06409756353579   -9.42607202733454   -6.17915171366938
C           0.03698322976602   -8.15735536251797   -5.59618987346166
C           0.80768872190749   -8.17379002203787   -4.36085725266955
C           0.68456666842822   -7.28625199250731   -3.32963706645509
C           1.22635233209423   -7.53902945997154   -2.05674595472303
N           1.62674278665160   -7.76255647671886   -1.00363346226572
C          -0.04678961118556   -6.08110319908087   -3.37974439147842
N          -0.60932637588433   -5.08155811327904   -3.35325139383005
C          -0.69528738784199   -7.11713937308438   -6.18422851656926
C          -1.39503196369776   -7.37383460235942   -7.33384162095384
C          -1.40678120771867   -8.65114537948768   -7.93756256870815
C          -0.65624740927802   -9.71401073210278   -7.35573800884899
C          -0.66655173261966  -10.98550670716319   -7.96406774584308
C          -1.39607078559938  -11.19691557543512   -9.10164032506242
C          -2.13963504389361  -10.15445119083972   -9.67752972524337
C          -2.14464878297437   -8.90947239422556   -9.11044343109017
C           2.71816532210684   -9.80027233714122   -3.79958796927456
C           3.70556540483091   -8.99983106682045   -3.03213124211642
O           4.92076435468207   -9.73571879991660   -3.02002783117447
C           5.78216971694705   -9.46749218967838   -1.99324296292481
C           6.63978254975801  -10.40328690470463   -1.50203543258202
S           7.59476113099232   -9.78305333983129   -0.21784584725259
C           6.84905075715808   -8.24406269120265   -0.33939697718654
C           5.90648827083319   -8.21118192973955   -1.32141923724161
O           5.16732231092822   -7.09346901180324   -1.59660064598679
C           5.01481495803739   -6.77450777755022   -2.96774297202775
C           3.94805422068198   -7.61069997160400   -3.67342094569278
O           3.37629310761165   -7.23191803215473   -4.65750218973273
C           4.66065310915873   -5.31028719214641   -3.07913811262199
C           5.40578496486663   -4.47153965575980   -3.84981752627643
C           5.04684770689504   -3.10140935545877   -3.94037077832881
C           5.62354581771955   -2.03628011910647   -4.61056418118404
C           6.85712616542866   -1.97180899525453   -5.44944680008921
C           8.10609562204220   -1.77933458691461   -4.56133977543333
N           8.33400774326499   -2.94655734063381   -3.73056937572841
C           7.04237941969114   -3.18539548768866   -6.39148328703889
N           7.79607538743788   -2.90043926578808   -7.59471121190305
C           4.81961213814257   -0.87032518583479   -4.30703706339429
C           4.94380767175827    0.41528803115558   -4.68104855401807
C           3.99150649304536    1.46230435172168   -4.21481017096764
C           2.90091762927442    0.96243958807323   -3.32589632869729
C           2.78626339419686   -0.33032257089965   -2.96531656077531
C           3.72338242492206   -1.28493793260508   -3.42240159823649
C           3.87064215634375   -2.64271717418654   -3.20808900669749
C           3.12637237249134   -3.55278817149582   -2.42483059975246
C           3.51985327915009   -4.85124313631552   -2.35813868734219
C           3.39877824100027    2.14402873714914   -5.42563513199163
C           3.87077316215567    3.25578198552646   -5.96159632796073
C           3.26300266697472    3.92009670629123   -7.17481139488363
O           2.14298775052043    3.18804178049055   -7.60522076486597
C           1.56893697484624    3.61635855150399   -8.77896735050515
C           1.35178364236209    2.77297169736028   -9.82644289525178
S           0.56505931096784    3.55434380642405  -11.13020986593006
C           0.53120731046439    5.04409148296021  -10.27866117273832
C           1.08992672565678    4.93885027325782   -9.04099298593737
O           1.16008486425389    6.01303621108619   -8.20369725744530
C           1.46602818100502    5.75185944539284   -6.83941762574705
C           2.95813961881461    5.35999337980593   -6.76957508126686
O           3.82826550547738    6.12688305999594   -6.45663287220598
C           1.19062417361814    7.00869222406132   -6.09230902555985
C           1.70503879941352    7.40612202611940   -4.92055236903288
C           1.65226654056435    8.85976883924598   -4.54324377241810
O           0.86260774796864    9.67294074964945   -4.96009199210806
C           2.78904538509581    9.04665855586457   -3.62918198705771
C           3.36986408078434    7.80799008118947   -3.33933700649879
C           2.61078779348470    6.75490564503357   -3.98802391873470
C           2.62254274076398    5.42217385626660   -3.67208184060899
C           1.61343046001251    4.54354134911736   -4.10563005302518
N           0.76094183196232    3.83214207519553   -4.39954766340281
C           3.58376364666316    4.79100914151697   -2.86275580865612
N           4.36631719656023    4.18939988496382   -2.27441189531350
C           4.48940106392049    7.72223644757058   -2.49960645157180
C           5.00403810657448    8.87530964190188   -1.96993484387056
C           4.43784317644771   10.14267179007120   -2.23660434549182
C           3.29900841218245   10.24364647197469   -3.08835296269087
C           2.73983257398243   11.51040922210966   -3.35198561064999
C           3.28600174828428   12.63271655771799   -2.79197535035110
C           4.40617818340254   12.53883508529661   -1.95113094986432
C           4.97031760946421   11.32207906957989   -1.67915707002948
H          -0.69727642348972   -6.13127872646596   -5.74858575920223
H          -1.96263482838585   -6.58286884071969   -7.80259158453666
H          -0.09137586061452  -11.77872118187516   -7.51343438922608
H          -1.40494590034911  -12.17146159725444   -9.56638031041104
H          -2.70871736156779  -10.34397023395300  -10.57561899041389
H          -2.71561075342350   -8.10572344167969   -9.55234530676308
H           3.06415526376813  -10.79866400365995   -4.04312768789983
H           3.36345351972044   -8.81484783656578   -1.99984296209578
H           6.75444730190250  -11.41500120524607   -1.83080909218996
H           7.12510516473093   -7.44680551463696    0.31894629794067
H           5.95592933605793   -6.96529166408459   -3.51288455181675
H           6.27072566045091   -4.83400162907656   -4.38094723431426
H           6.77727502336643   -1.07564689166875   -6.07961869533932
H           7.97662005871011   -0.84756333860808   -3.98256257379606
H           8.98554053887415   -1.65476897529093   -5.20225561820800
H           7.55310320590951   -3.07615847622085   -3.09526304175633
H           9.17257185280691   -2.82446868552732   -3.17410426803076
H           6.06201760559942   -3.55982659688800   -6.69616852906758
H           7.57505622675049   -3.97126980004632   -5.85529180202172
H           7.35094763763449   -2.16406366047627   -8.13282692094334
H           8.73561787990950   -2.59743212625213   -7.36311666998602
H           5.73308291360424    0.75466295738780   -5.33889514397360
H           4.57576305806035    2.21341512493489   -3.65926107091820
H           2.19154585292994    1.70394456236643   -2.99291156709784
H           1.98197984559677   -0.65291489679512   -2.32097609632961
H           2.25774650570518   -3.20824494528168   -1.88465887338420
H           2.98761108497094   -5.55921307690226   -1.74227373145187
H           2.54588900837311    1.65029442869369   -5.86603562661656
H           4.72354585242759    3.78431164381887   -5.55779955192663
H           4.02778810331329    3.96639986121781   -7.97221244727056
H           1.59784391343520    1.73231589654678   -9.87659539042945
H           0.10093392646738    5.91773833056402  -10.72140618327883
H           0.86049533434592    4.90902976356387   -6.46856345581007
H           0.60696415112493    7.73311531729393   -6.64738685217264
H           4.94307818412162    6.76795288797317   -2.28501512399331
H           5.86968835745696    8.82925266052417   -1.32485893064190
H           1.87993409108843   11.57093506468463   -4.00004204215038
H           2.85715283143238   13.60264940357336   -2.99445655108203
H           4.82117938841310   13.43764375206223   -1.51971304342425
H           5.83247277347120   11.24776221043519   -1.03226748750926
