142
 SCF done       -223.161636558385          0.000999565425
C          14.11567805078266   -0.00732709395539   -0.77057539691289
C          15.21645597604699    0.91365256181043   -1.14292914976991
O          16.14772497880790    0.65379608134777   -1.88471098093907
C          14.88440080907237    2.19953102523452   -0.50445922599581
C          13.70947414047543    2.05905509427702    0.23767860994626
C          13.31454590289368    0.65633819996225    0.23798731453005
C          12.57540420321163    0.03885215520014    1.21152340910080
C          12.52807456022204   -1.36269897003509    1.36501398766767
N          12.53263753990112   -2.49330919970106    1.56431674819310
C          11.88573904803634    0.72152971372234    2.23282227366746
N          11.29801983228619    1.23275556750563    3.07578438029548
C          13.12333826520880    3.16208169677318    0.86962907700722
C          13.72803875926497    4.38587716616079    0.74966118178342
C          14.93985473296780    4.55653549653693    0.04482159685680
C          15.55356729431767    3.43728740107501   -0.59000446654106
C          16.78659642338670    3.60846735592945   -1.25237161375724
C          17.37035897114884    4.84457552997896   -1.31697724014713
C          16.75345470716841    5.95459190262810   -0.71925358289626
C          15.57104818868534    5.81376253114614   -0.04585285173718
C          13.95156709409167   -1.20198223170758   -1.39530766500695
C          12.78907922042587   -2.01259618039647   -1.43260503855027
S          11.18316117251280   -1.32192242608637   -1.35308378573623
C          10.47930083789216   -2.87118423838205   -1.53076673362957
C          11.39945879814634   -3.87201651249758   -1.62829970587019
C          12.72630780407229   -3.38350602999964   -1.60185252026898
C          13.90268102957153   -4.29769316755898   -1.67679211232657
C          13.52120426781292   -5.58166622117737   -2.41944677799630
C          12.31288568336437   -6.19986386905409   -1.69648202435392
C          11.07171594918668   -5.31784182085929   -1.82849814708592
C          13.18026914130638   -5.35147442420882   -3.88210352370370
C          13.13231987681954   -6.36477105163953   -4.73948924711555
C          12.83484765702213   -3.98459145838511   -4.27149743973323
C          11.67473865706691   -3.64130472227750   -4.84149661755887
C          11.20765994621793   -2.28191325907834   -5.03159600642480
C          12.03844154827722   -1.19017191753264   -5.00752660379503
C          11.50438629844481    0.11345914029423   -5.08657973850025
C          12.11952455941426    1.35625025307678   -5.08258585210134
C          13.58078604944477    1.61964948481433   -5.20620475052076
C          13.86451872545996    2.28495509565404   -6.58046710129077
N          15.26246185136193    2.27612261508862   -6.95507295416082
C          14.16577247042805    2.46968310421433   -4.06381561012865
N          15.61966465953277    2.49103592996789   -4.14759819748115
C          11.06652164097034    2.34124019762331   -5.16940619716272
C          11.08574319528044    3.68757650772316   -5.15219409759123
C           9.85699558438412    4.49196874115842   -5.40649376519186
C           8.59583248072520    3.69951607665775   -5.47845083195392
C           8.57636845963068    2.35713265485433   -5.39445209168021
C           9.78350256729790    1.62997945832464   -5.25506588664393
C          10.06017074761337    0.28060687229719   -5.18301196202173
C           9.22918775959378   -0.86266277980577   -5.22476688548044
C           9.79142554340343   -2.09460358209238   -5.16384178762155
C          10.20470514644900    5.19246418671244   -6.71065492744271
C          10.02252364707299    4.62752147176655   -7.90534535971548
C          10.42437454321251    5.16901496200218   -9.17476345100966
S           9.63879132260310    4.55695452557976  -10.60686203909712
C          10.59178154416186    5.57028461025145  -11.61004609185841
C          11.47575466999177    6.32459568986600  -10.90149235326640
C          11.38464503971172    6.09871541683837   -9.50365028551565
C          12.27551415001304    6.80678187940230   -8.53280534709591
C          13.46937596776505    7.47304240365105   -9.23447227276883
C          12.96032215361365    8.26064913953961  -10.44174032957511
C          12.46163857300140    7.27947030883418  -11.49948878849156
C          14.21390405206210    8.30146060259637   -8.21664660313752
C          14.00610856885900    9.61593831958733   -8.06625713398693
C          15.16001654988182    7.64914183586081   -7.34096689805017
C          15.57807899048957    6.36587033180297   -7.38629856520567
C          16.57543094927844    5.88183189133335   -6.49479775113914
C          17.34653866782132    4.77209993130570   -6.61430001274576
C          18.08082903220726    4.27059171838800   -5.42083060763841
O          18.25281057535663    4.88108941394145   -4.38492047857381
C          18.48704902580414    2.89961058275161   -5.76094153953330
C          18.17303996540937    2.64291553669722   -7.09593007346863
C          17.56189719466893    3.82832933842793   -7.69307508469870
C          17.42443908631019    4.05692704412706   -9.03523465139284
C          17.03429987710203    5.27658314929478   -9.62570772652515
N          16.76597415504991    6.23645308029248  -10.19695140500026
C          17.74807289274636    3.11640398559747  -10.03684584772411
N          17.99102968978227    2.40738923799853  -10.90651606595497
C          18.43232320168525    1.38430996355822   -7.65473214891610
C          18.97231981612926    0.40653741843828   -6.86060126510784
C          19.28450828811172    0.62982779750890   -5.50140827270571
C          19.05233678857929    1.91324609538743   -4.92918895777506
C          19.37262469294695    2.13485712166449   -3.57525499529718
C          19.88012190371040    1.12141352643893   -2.81055390789109
C          20.10026317835587   -0.14832152735866   -3.36708637086463
C          19.81626952618404   -0.38774597505371   -4.68359818726927
H          12.20369878307826    3.05439368774195    1.42161724143562
H          13.27965445592152    5.25328059194207    1.21236322039857
H          17.26242751175968    2.74383341096134   -1.68909058368026
H          18.30389912118373    4.98139343450028   -1.83934845736131
H          17.22850886923760    6.92186988554632   -0.78735115767632
H          15.10402164099360    6.66308374172999    0.43194489850677
H          14.79772149461872   -1.53994446463664   -1.98760783862884
H           9.41071478749589   -2.95617882201359   -1.55765943498088
H          14.20864892591957   -4.55565738844354   -0.65777130155746
H          14.75528465937511   -3.80495507737307   -2.14921447505361
H          14.35628976631590   -6.28769592993974   -2.35846883449498
H          12.56470886954985   -6.31991349829469   -0.64074578063434
H          12.09696582696849   -7.18693525144840   -2.10747373361080
H          10.31208062469427   -5.62917016479338   -1.10823639890429
H          10.64291468890132   -5.43932155219324   -2.82740297467071
H          13.37474758123386   -7.37235132428853   -4.44557024630967
H          12.87037699892286   -6.21467104782673   -5.77261948194838
H          13.54824387885784   -3.21653392604299   -4.01188281660862
H          10.95848885218934   -4.42047282789168   -5.07328996570609
H          13.10819276492636   -1.31856909935467   -4.92834099924539
H          14.10716380628803    0.65749226163070   -5.19211159616896
H          13.53695617222505    3.32810292124102   -6.54557513552038
H          13.28195101996240    1.77768200281764   -7.35457020786144
H          15.78596613778267    2.53989821389484   -6.11927031645564
H          15.54752012135587    1.33174101978509   -7.19825284400041
H          13.79840384325518    2.07107696504652   -3.10148440745386
H          13.81319475186492    3.49997744803526   -4.14713085653817
H          16.00751180493627    1.62490781654701   -3.78046110248683
H          15.99831574738181    3.24691751468163   -3.58640837794078
H          12.00075009061757    4.25092759755029   -5.03568150035495
H           9.75126234630975    5.26456711115484   -4.63357542502703
H           7.68817707488663    4.26828157492826   -5.61221500874304
H           7.64286331330596    1.81487365277472   -5.44277927290989
H           8.15882528850947   -0.74190938648978   -5.30843490559267
H           9.16890230530299   -2.97806558202848   -5.19423486258766
H          10.67870191713048    6.15401911425172   -6.60539354745823
H           9.50742479729569    3.67603484601467   -7.95627394173348
H          10.44610677421717    5.54950552865424  -12.67189143211806
H          12.62770836024566    6.10246571199714   -7.77420810893067
H          11.70264935398851    7.58921930199801   -8.02161399382181
H          14.14497131754843    6.70110552944455   -9.61333862538553
H          13.76390177273081    8.87121957438087  -10.85502954065969
H          12.13834565629618    8.91582206273502  -10.14640608746976
H          13.31027793398462    6.71438135583935  -11.89766491709847
H          12.00334083429288    7.81305954734519  -12.33489861514469
H          13.32220060064915   10.17066314480974   -8.68203351415786
H          14.53211725250983   10.18301167477978   -7.31624383683105
H          15.61961623037934    8.29877239304739   -6.60436562889506
H          15.17685289421292    5.66570461759362   -8.10276340522543
H          16.72333916623024    6.44169641383672   -5.57552059064912
H          18.19105244832483    1.17787230712770   -8.68435937323136
H          19.16298690421410   -0.57375941027278   -7.27389924789353
H          19.20818932899003    3.11760158756340   -3.16466959437887
H          20.11574422092550    1.29051425190059   -1.77026236874385
H          20.49961570493708   -0.93621131886679   -2.74568248815463
H          19.99230551367871   -1.36245321238634   -5.11600281867823
