118
 SCF done       -225.744360886485          0.000362248281
C           3.20615521596667   -5.18982494984295   13.25379595487262
C           2.11804988955255   -4.77837398514084   14.18717445888249
O           1.96124217018488   -3.67377361463462   14.65724016469947
C           1.27703228788082   -5.97961616234790   14.34316087693700
C           1.87624798622712   -7.05779886913030   13.69000553489510
C           3.16148379606860   -6.63241623452102   13.14628062533938
C           4.22575376397498   -7.45107323155934   12.87629050362485
C           5.53457298806331   -6.96710816510220   12.66663504076083
N           6.61940475996613   -6.61127694727403   12.54788110275950
C           4.16404351986959   -8.85907534954553   12.88558303590988
N           4.16699403411243  -10.00678343959607   12.86534883586360
C           1.25730231452340   -8.31377411728310   13.66543111638791
C           0.05428075385862   -8.46577257512488   14.30411268042008
C          -0.57048081471470   -7.40131655607536   14.99068759739495
C           0.04693453660480   -6.11659741840838   15.01550289863600
C          -0.58223455593701   -5.05700295022645   15.70016379584150
C          -1.77399354956361   -5.26315582974356   16.33867863278994
C          -2.38577004675571   -6.52688131891118   16.31926962192178
C          -1.79932148790817   -7.57216704680540   15.66004026536745
C           3.94318924205880   -4.24891735884676   12.61156187145233
C           4.71339530006647   -4.37831427847788   11.42979067386937
C           5.68326307290967   -3.48454567919528   11.00414733123421
F           6.03672973684612   -2.42359477519963   11.73070536605689
C           6.26040348805874   -3.81625306313935    9.77763497642893
C           5.69181494308923   -4.96965360284506    9.22132467430362
S           4.46594992676681   -5.63779075564464   10.22923706645062
C           6.26734021065046   -5.29473504216239    7.99122710034327
C           7.26987472850003   -4.39131461777208    7.62758407052397
S           7.51491960402285   -3.12298933543776    8.79136186382601
C           7.86101897118097   -4.71669389566913    6.40072508835306
F           8.84151091691988   -3.96762509389317    5.87148899804690
C           7.33855351707281   -5.84781551542334    5.80325570066899
S           6.06593476633656   -6.52741403795397    6.80318074060095
C           7.69874908287779   -6.48384796477356    4.56111738055877
C           8.78582241417590   -6.06723974448272    3.82751633452339
C           9.11496475533113   -6.71450690466563    2.61937374004335
C          10.14000394604549   -6.48995675846021    1.71343690327658
C          11.21911404161829   -5.46038674577495    1.75270088538296
C          10.63421779559143   -4.03649823657371    1.67351336293641
N          11.64091216459948   -3.13417322310036    1.14732330181939
C          12.11884605148022   -5.64159604961919    2.98902458238986
N          13.30892063310461   -4.81024643735395    2.88362048341488
C           9.96932054066425   -7.45591689210379    0.65174820656744
C          10.67792941160130   -7.66749247396551   -0.47090689724026
C          10.30998916858624   -8.74602933527976   -1.43578604163843
C           9.09245278137184   -9.52698262579155   -1.06292123937438
C           8.39104828767643   -9.29680462038244    0.06159698200748
C           8.79142586043340   -8.27840561812894    0.96091076933509
C           8.28424209949308   -7.82279742311043    2.15849662160942
C           7.17628112104003   -8.23042979303117    2.93947443233409
C           6.90005709192889   -7.58382411142896    4.09681478564510
C          11.53698194922120   -9.59823057679715   -1.63579411982772
C          11.63494849504583  -10.88421063363774   -1.29616348858550
C          12.82168759807447  -11.66917627781998   -1.46982567681624
C          12.93788791677331  -13.02587809162354   -1.26240902231295
F          11.90803196434797  -13.78256133985242   -0.86427171984815
C          14.22307008614504  -13.53034223232525   -1.51104022005367
C          15.10995574330171  -12.52519129096102   -1.90837220681526
S          14.34588740570209  -10.97997138315902   -1.98454710312476
C          16.39298106038071  -13.02559513745104   -2.14943656940744
C          16.46326052496057  -14.40789294858051   -1.93900088543754
S          14.95068303096746  -15.10641294560104   -1.43895786648871
C          17.74872198221287  -14.90752222716645   -2.16462256126954
F          18.08320829037442  -16.18934794405097   -2.01982650433312
C          18.66157304357079  -13.94846761389929   -2.57227911175661
S          17.90772021898448  -12.36342741778468   -2.62792627778644
C          20.04450510699951  -14.18157091507146   -2.78398998450619
C          20.96778067735982  -13.38439804604899   -3.37381797320727
C          22.41818752078132  -13.58225018855665   -3.07494593340295
O          22.91530070490014  -14.56875571001745   -2.58190042335089
C          23.05663011209158  -12.30709430918408   -3.44720657603368
C          22.11944232832666  -11.47631872178575   -4.06470909012135
C          20.85569148987446  -12.19307117517829   -4.19022194442076
C          19.88185712145172  -11.94807325518667   -5.12012075646342
C          18.84371229305501  -12.86287828134998   -5.39896575317504
N          18.01932526647682  -13.60912162344592   -5.68285482320088
C          19.86246680071787  -10.82130252697040   -5.96705098831452
N          19.79100133664180   -9.91424238280377   -6.66640491827651
C          22.47132468093966  -10.18748144891575   -4.48446694377929
C          23.75721051555574   -9.75908877638441   -4.28091190976152
C          24.73467831142946  -10.57906181445690   -3.67476199815473
C          24.38681274815216  -11.89195215147754   -3.24099809362715
C          25.36619858771628  -12.70617342181543   -2.63683191041867
C          26.64080774859665  -12.23869486584138   -2.47050858611490
C          26.98899487418059  -10.94632969221881   -2.89492582366771
C          26.05843815813207  -10.13408950766808   -3.48306201196003
H           1.71111580245588   -9.14122094219391   13.14434558892784
H          -0.44100243867196   -9.42596301079437   14.29128120189398
H          -0.10304656208292   -4.09078250771699   15.70814889728454
H          -2.25439015494861   -4.45174762053847   16.86467859675982
H          -3.32656549300220   -6.66724884502239   16.83074240648822
H          -2.26787550126038   -8.54562760925922   15.64421374971865
H           3.88052486501805   -3.24182585801398   13.01428024945455
H           9.39755862032518   -5.24905563424502    4.16289791772711
H          11.85044267481969   -5.57876809953066    0.86641966741933
H          10.25481565561331   -3.74451931941419    2.66497071179523
H           9.78627280514640   -4.03819381138939    0.97927010046162
H          12.45439335299372   -3.16921802542744    1.75674244956177
H          11.28947718569827   -2.18281795256847    1.13543106137059
H          12.35122537556639   -6.71608956591951    3.09291267342311
H          11.58315165178970   -5.33112472731823    3.88829111319569
H          13.88851704042066   -5.12426933739332    2.11147328337394
H          13.85977115665400   -4.87516832976019    3.73276954136444
H          11.55069801754752   -7.07861414816741   -0.71843828047458
H          10.11541488436403   -8.25501427287571   -2.40476960084682
H           8.79026778320914  -10.29021867040042   -1.76393026014665
H           7.51073874419101   -9.87973081387871    0.29014147202093
H           6.56176059213071   -9.05279416212760    2.60486971882132
H           6.05677780617823   -7.88446378200153    4.70161136210809
H          12.39337804272938   -9.08977165441061   -2.06064515030652
H          10.79391430825536  -11.41428782767064   -0.87051741747983
H          20.42761122011873  -15.09336032288913   -2.33390847716099
H          21.74253863184927   -9.54029785293640   -4.94518786071284
H          24.04551409772774   -8.76505716743743   -4.59096596525819
H          25.08729102431220  -13.69673573237303   -2.31395244477452
H          27.39106058451648  -12.86341253061861   -2.00947819982465
H          28.00105273787151  -10.59747345131059   -2.75264263024632
H          26.32444656656362   -9.13975876589444   -3.81140855684572
