120
 SCF done       -227.163326693325          0.000706742287
C           8.77732987995789   12.64248314788085    0.34004470471915
C           8.25421238711752   13.94771362469458    0.86116555117639
O           7.62650645154305   14.76116290036570    0.22296069499128
C           8.62481838173775   13.96857348057117    2.28411251657831
C           9.43681191147458   12.86963192239832    2.56993081205118
C           9.67582633087236   12.11071159727481    1.34770268520469
C          10.70389001601523   11.23334694437181    1.13997594634810
C          11.00805637695990   10.67550310547123   -0.11822792490423
N          11.29348105521397   10.21034233396722   -1.12789696177147
C          11.62476980850757   10.83741954031535    2.13329040831898
N          12.40267340440308   10.47802375165789    2.89625205934657
C           9.89891985237447   12.64385456563207    3.87304667543173
C           9.54328057085857   13.52653235454560    4.85914104956850
C           8.73414640304004   14.65529844417052    4.60138250093284
C           8.25338197553267   14.89283317173391    3.28074664273551
C           7.44036550667585   16.01648061693990    3.02946141600451
C           7.11826674287925   16.87248501415514    4.04660148335194
C           7.59033218490048   16.64443941701845    5.34907222086369
C           8.38010786097975   15.56116785059015    5.62165341713114
C           8.30100551655594   12.17923886030065   -0.83595167581977
C           8.34955540057575   10.85929221112047   -1.40938354432380
C           8.34510830349724    9.67093479971647   -0.66581212402378
F           8.30651959424303    9.72861790487570    0.67626458423049
C           8.32033533288662    8.43410037308062   -1.27401528695237
F           8.29388170820726    7.34359326769926   -0.48929899549213
C           8.30042593443720    8.26548191960002   -2.67140816751055
C           8.30157055043311    9.46053510706973   -3.41180543564170
C           8.30676894349760   10.69975589129691   -2.80217181349616
F           8.29370005851208   11.79736356945740   -3.57031447999310
F           8.28931490556363    9.43137420260554   -4.75263503923001
C           8.25675737627294    6.93064583118274   -3.20438090166538
C           8.04943228712922    6.57296949848771   -4.48995053416816
C           7.92904838494574    5.22178857173863   -4.97254134446302
C           7.44521276785925    5.02840962797249   -6.24890506039850
C           7.21042034682515    3.72668899574429   -6.73179395494667
C           6.67001423415467    3.28571751195836   -7.93098580378850
C           6.21658522603394    4.14148636343829   -9.06442928098752
C           6.82853326664322    3.70980195740790  -10.41066231125667
N           7.03275088162559    4.88093391263803  -11.24186199361717
C           4.67809068277231    4.18639784977741   -9.12867547637677
N           4.17090470537138    4.89670465878518   -7.97037985791071
C           6.57806211943902    1.84525811795891   -7.83783524705994
C           6.05444092337773    0.92631408273423   -8.66875487477559
C           5.98559693731356   -0.51874096275242   -8.29339673974111
C           6.67915635602377   -0.86621478226030   -7.01708962434240
C           7.19061532335068    0.06554189974861   -6.19258003001510
C           7.13653998955763    1.43757813013083   -6.53741153023448
C           7.51182879436654    2.58630818375835   -5.87509062001204
C           8.06948196062511    2.81334264982200   -4.59348305982747
C           8.26243650346277    4.08318500275314   -4.16118150700878
C           6.37436186375255   -1.35720209096351   -9.48084845127446
C           7.47119244270163   -2.11462488470602   -9.52943112873052
C           7.88148300883292   -2.98383343671392  -10.61605812365784
C           7.21128398778344   -3.15306221426831  -11.83469729501479
F           6.10121870174101   -2.44984619693520  -12.11008700478167
C           7.65258193742444   -4.04676590557458  -12.79207039097082
F           6.94883487239109   -4.15561453359822  -13.93096357810632
C           8.80014301562869   -4.83806031439008  -12.63008744344964
C           9.48017253573841   -4.66036243490094  -11.41787965788703
C           9.03165140671441   -3.77175585604378  -10.45680343491999
F           9.72639793196916   -3.67630527850354   -9.31311940886754
F          10.57542434802357   -5.37947590408122  -11.14185172986639
C           9.18053344519710   -5.72705754626855  -13.69934693327059
C          10.33091124605676   -6.41657372042957  -13.82918146566470
C          10.61094750688176   -7.26605001358379  -14.94504316258391
C          10.17080332987807   -7.19283505300863  -16.22326740110551
C          10.31587586200131   -8.39903730093184  -17.10013383797192
O          11.01764193499426   -9.35711466287701  -16.86815043026384
C           9.39801460562762   -8.17095681116587  -18.22584366322024
C           8.86921835018273   -6.88193175556599  -18.13863488786763
C           9.45508361382802   -6.19047548679788  -16.99399856934453
C           9.50110327324607   -4.83231167989495  -16.83730078684236
C          10.21762553600504   -4.16331698421095  -15.82366366547535
N          10.78698774607786   -3.55034100589071  -15.03809337913965
C           8.88830933401159   -3.91187795760734  -17.71558208318575
N           8.41818533532736   -3.11212310146549  -18.39058029297465
C           7.92950649578389   -6.43265606413609  -19.07596462381530
C           7.55221887472081   -7.27776650961242  -20.08654697662125
C           8.08277404787502   -8.58051056979856  -20.21459745418690
C           9.03056662576671   -9.05357332293081  -19.26077519925854
C           9.55104118357780  -10.35733243012224  -19.38689051905926
C           9.15101714625624  -11.15930131032086  -20.42035323565060
C           8.21963229527267  -10.69770908224040  -21.36415166954182
C           7.69617618730713   -9.43762546140031  -21.26455942605327
H          10.50832112062484   11.78462563338677    4.10076361582559
H           9.88527018987517   13.36404205303814    5.87110129446651
H           7.08318379715587   16.18205437551132    2.02536434523590
H           6.49570047430571   17.73328822826758    3.85360124429202
H           7.32317736653572   17.33308949871471    6.13693825526178
H           8.74454191034358   15.38345527253938    6.62309963099089
H           7.74701122235196   12.90854198741920   -1.42102862593263
H           8.36011457530030    6.16122006757317   -2.45281287445024
H           7.90041436537305    7.33047067600841   -5.24457138604487
H           7.20237169370851    5.87829821804770   -6.86949682112447
H           6.55748329701359    5.16340465690642   -8.87976351407081
H           6.18969762200829    2.94581556937801  -10.88600677705270
H           7.80995415273995    3.26166509260750  -10.23156005617042
H           6.14679927123006    5.31852648646593  -11.46995254371238
H           7.49352359714397    4.63245740711857  -12.10950622510322
H           4.28829031947434    3.15685333501111   -9.21819638705775
H           4.36676839752460    4.74503611819163  -10.01622570370261
H           4.44246255898396    4.41730225018627   -7.11817408853904
H           3.15934903839248    4.95360056960334   -7.99460680273431
H           5.63914956302529    1.18774307721363   -9.63125932012848
H           4.91020182829929   -0.72564906280335   -8.13357950471833
H           6.69818094253452   -1.91387386382772   -6.75858936245498
H           7.64892698720009   -0.21966137332584   -5.25700745307658
H           8.32785210827738    1.97015628589983   -3.96984988172692
H           8.69123164062991    4.25249246495970   -3.18637546420003
H           5.68968678126046   -1.29283627160613  -10.31190838135668
H           8.13640437198089   -2.12549057800507   -8.67687395206540
H           8.43138656440111   -5.82736193926926  -14.47453827964344
H          11.08010725284973   -6.40359660885664  -13.05263467545043
H          11.23454100597060   -8.13063830903275  -14.73450609174852
H           7.49878699690235   -5.44786326399148  -18.99822783244426
H           6.82539540266631   -6.94847621471708  -20.81492249014276
H          10.26584132348509  -10.70178645170326  -18.65637989514592
H           9.55096386487966  -12.15742230598173  -20.51753922471473
H           7.91807021268151  -11.34802877745093  -22.17179881935205
H           6.97936573802913   -9.08005641470203  -21.98945280878887
