114
 SCF done       -203.056910125068          0.000430558413
C           3.37125461594834    2.79662636617106    5.74160957525306
C           2.81609341562718    4.17694955585070    5.80495354675405
O           2.61668556697161    4.90538505142084    4.85720310631064
C           2.53966142455263    4.41958535537737    7.23277960103298
C           3.01737417791190    3.34455631666734    7.98291730085323
C           3.67944313003413    2.39412726336951    7.09239294259874
C           4.62622266475306    1.48129108533848    7.49075118848120
C           5.44771676109273    0.73078035883694    6.63663254130002
N           6.21310417327643    0.11338385684559    6.03816100274262
C           4.98543502256259    1.25060865093426    8.83620262713447
N           5.32514294139672    1.01227205178599    9.90637538409514
C           2.83947693967125    3.31031334948307    9.37191208061613
C           2.19944028402549    4.35943642929698    9.97917685789405
C           1.72459942317868    5.47232101128349    9.25134757859853
C           1.89019621636234    5.51262964069731    7.83579849642195
C           1.41035870263391    6.62280715278808    7.11079138162911
C           0.79489333170759    7.65465740790286    7.76355125177157
C           0.63062355847017    7.62130472299006    9.15797722344142
C           1.08316803140086    6.55535003549981    9.88605315909803
C           3.44401460902128    2.16688570174362    4.53642951144373
C           3.57869897800058    0.78266861120810    4.27249942435737
C           3.30692747750793   -0.27205704866407    5.12678777755746
C           3.64963707195516   -1.49419221487539    4.47389424469918
C           3.46618038650470   -2.77394499286331    5.01000562782006
N           3.32586224194286   -3.82238794973914    5.45669670277078
C           4.20638754374363   -1.19561917624055    3.24509837711038
C           4.14623652178251    0.21872834617087    3.05685461386711
C           4.58354293784606    0.86629239952172    1.90127458095756
C           5.68497140743475    0.32986264693736    1.04884327565611
C           5.64136967074748    1.01325596683967   -0.15446326525022
C           4.63520704387498    2.00259389621156   -0.05368752225748
C           4.02869112815866    1.94302173924577    1.21028273762318
C           4.29654782404141    2.90440663208714   -1.07130242095572
N           4.02520149499613    3.63962968086505   -1.91032596141757
C           6.69694596564479   -0.51447235853687    1.51718442507446
C           6.94993380218452   -0.72635716638768    2.85436935478599
C           7.87840882002406   -1.62261094012446    3.39523010260068
N           8.05222017873183   -1.68601367635657    4.76013938140546
C           8.98611972031783   -2.62349627308449    5.03059149861348
C           9.68915385604785   -3.25077730187511    6.04683653485569
C          10.56361117385984   -4.15799145542319    5.42052301573279
N          10.39418194472643   -4.09190691517321    4.05320096577254
C           9.43340398736635   -3.16887102748357    3.78186400432723
C           8.73971304586836   -2.55553082588433    2.76261206096667
C          11.49932145305599   -5.00946230309289    6.05444564070126
C          12.45005694807174   -5.73392348529279    5.40499322144706
C          13.45880687809126   -6.53955508810214    6.00338336674710
C          14.73488003986405   -6.59136643879081    5.50543373064462
C          15.57649716721934   -7.27663744876272    6.44793452205769
C          16.96375326151405   -7.42359073481738    6.30908695651913
N          18.09867066873377   -7.53893240976285    6.18345988922818
C          14.80626040869191   -7.72492374649772    7.49174304972220
C          13.43814789489850   -7.38606567841966    7.22552663137910
C          12.34543669066961   -7.95804271556946    7.82988259588512
C          12.36886137683511   -8.96140159494855    8.92044025673049
C          11.09094219514787   -9.08520842908851    9.39280711398796
C          10.21841979394144   -8.26542641436696    8.58402688288308
C          10.95971379004046   -7.63340244145902    7.62190073157491
C           8.82984638423892   -8.16655336608940    8.75178083027891
N           7.69506830891670   -8.06717796305634    8.88964231662222
C          13.45457389371744   -9.80751803370538    9.29467953408889
C          13.55848509413449  -10.43880148787545   10.49170123047524
C          14.57523030982872  -11.39050768477466   10.73824493403767
C          14.74054654834665  -12.21319945285007   11.80944859591626
C          16.04846107376577  -12.90789206847193   11.98294369684736
O          16.91681027159635  -12.99870345552536   11.14222968715552
C          16.05201629956002  -13.39411193106445   13.37216117889501
C          14.81597825256245  -13.12189902926592   13.95991694674626
C          13.92709631626192  -12.52179531255485   12.96558738476484
C          12.56080962536559  -12.47892551605542   13.06024636143714
C          11.68322599263693  -12.14360095165585   12.00916839741739
N          10.90392257463417  -11.92276268720500   11.19511207798451
C          11.83210164323217  -12.86793835528704   14.20527947690510
N          11.17734465586108  -13.15256551297965   15.10396767214117
C          14.58098562247328  -13.45090677420468   15.30150001498745
C          15.57958468190021  -14.05958399135308   16.01639940167577
C          16.83215220001236  -14.37029708890709   15.44339984500918
C          17.08895666058957  -14.02742400483915   14.08411622316712
C          18.34226777431001  -14.33309183134589   13.51551262442379
C          19.30114621432714  -14.95890359583704   14.26339849152900
C          19.05260605790924  -15.30146443013552   15.60230504748158
C          17.84695860943724  -15.01326026362007   16.18082892503945
H           3.18274840255709    2.47033358068321    9.95366812088793
H           2.04786630284060    4.34578292196529   11.04879246428965
H           1.54176842947163    6.63636256474341    6.04032658585294
H           0.42924040978718    8.50573473815132    7.20882815689852
H           0.14122997222185    8.44727400615808    9.65251086196859
H           0.95736240762559    6.52793307900892   10.95875558650792
H           3.31935521848915    2.82108194227968    3.68136192045715
H           2.85581544088621   -0.21128085909524    6.10038931810965
H           4.52364931328725   -1.90790453120660    2.50781471473373
H           6.30105247362627    0.88554968880735   -0.99168643178774
H           3.18707807305609    2.53850189080758    1.50867590927760
H           7.35610756500378   -0.95306538665007    0.77904814200285
H           6.42463459627935   -0.12646416488666    3.58426845400801
H           7.50804743775348   -1.12346312936365    5.40896074668759
H           9.61198838386117   -3.09600895387560    7.10385194382435
H          10.87374929543891   -4.66686580275624    3.38319248524809
H           8.81924398393443   -2.71807641901463    1.70699513398651
H          11.46391365825807   -5.01793251536268    7.13464940671932
H          12.57728864255692   -5.58845735542418    4.33809090944793
H          15.09059756457108   -6.11864801541737    4.60869053288358
H          15.17203402013941   -8.22745343204095    8.36422879500664
H          10.74838492737373   -9.76296712270562   10.15265738317442
H          10.56771565512427   -6.99995805022059    6.85249994033868
H          14.18357790890966  -10.03990635143028    8.52908747971146
H          12.86244274080098  -10.19794651643567   11.28009302392095
H          15.36900067614989  -11.45702033213514    9.99919346245200
H          13.63854857286058  -13.22217300157517   15.77127900028466
H          15.41369673780111  -14.31671755755416   17.05261809695353
H          18.52191624395785  -14.06490431304703   12.48642149547126
H          20.26009149192615  -15.19514692986970   13.82700253751208
H          19.82421546311032  -15.79578648253960   16.17381600026878
H          17.65337514522791  -15.27596543308166   17.21079644290646
