114
 SCF done       -200.484215794945          0.000711772801
C           1.16019594740755   -6.54010320451128   -1.61413393138945
C           0.02510440308768   -7.49749090244069   -1.45659144355100
O          -1.13051950899712   -7.20089892074653   -1.24545697631105
C           0.61621551176182   -8.83152809885217   -1.65970403558772
C           2.00119245522118   -8.71053634547670   -1.77942321908911
C           2.38139053038365   -7.31488411505036   -1.59108678815747
C           3.62015216843303   -6.87253037190630   -1.21324387673947
C           3.88560076255258   -5.55395385382267   -0.79254733342823
N           4.14709606251959   -4.50257534888733   -0.41210447027998
C           4.76272174801559   -7.69241446136339   -1.11322484910045
N           5.73197983039392   -8.30008229344458   -1.01781673920786
C           2.79827100131896   -9.83636395203275   -2.02180585959160
C           2.19220835385308  -11.06098679074890   -2.12708386127451
C           0.79592550113773  -11.22175148156005   -1.98752087859219
C          -0.02616215802020  -10.08189115322525   -1.74981559365832
C          -1.41960907428452  -10.24724827941317   -1.61464827197438
C          -1.97621264236204  -11.49303868481767   -1.70712372522531
C          -1.17113653417300  -12.61956152792759   -1.94029397234336
C           0.18333547471219  -12.48811273902268   -2.07869735122303
C           0.89550450543368   -5.22763047779728   -1.82559284570214
C           1.74919772227838   -4.19332232804576   -2.31912645056540
C           2.88643828439214   -4.42642884418108   -3.13741226987077
N           3.36563583033385   -5.53874196747550   -3.65663757975077
O           4.43248912397886   -5.18465636037340   -4.37831640325442
N           4.66502196543221   -3.87449506900870   -4.34513356020345
C           3.72807580314392   -3.34200152534035   -3.58642441635652
C           3.45986382705327   -1.98807874605722   -3.23139875499278
C           2.30864930111304   -1.80996454385196   -2.48053332397408
C           1.48439708511013   -2.85711699728437   -2.06172128488235
C           4.34753195894382   -0.90626808094138   -3.60708724086883
C           5.66325293969940   -1.17067435381262   -3.92025207672819
C           6.55027439237717   -0.11828673993984   -4.20886373170989
C           7.90500947732054   -0.13258266838847   -4.51604654635253
C           8.75035637044040   -1.34892497021133   -4.67199460053029
C           9.26573388134144   -1.48891834242309   -6.11424797961972
N           8.13889740014721   -1.54249163145256   -7.03041896195531
C           9.91242840956024   -1.39157664781435   -3.66447396204225
N          10.56105448496438   -2.69076399178493   -3.71921293357661
C           8.30825183975809    1.24554389188238   -4.67240260007540
C           9.50098666328781    1.81301359324270   -4.93237735777667
C           9.67642577751814    3.29091736839945   -4.98618896927444
C           8.41826295167284    4.07926022344945   -4.78676867811915
C           7.22817874956584    3.49931598624675   -4.54545616102322
C           7.12135515188207    2.09210758829408   -4.45723405850602
C           6.06252248485970    1.25235464221697   -4.18194390294986
C           4.69777056093070    1.49239215326960   -3.90056645163268
C           3.87660855413942    0.44977443164702   -3.62004634609203
C          10.27443566592205    3.71028178080001   -6.30249603077390
C          11.35035407563772    4.49753331817510   -6.39500169697585
C          11.90798623406161    5.00160437830060   -7.62271985375923
C          11.39305784478441    4.68465074332875   -8.90969970400320
N          10.41343183321952    3.89205097342755   -9.29897686775821
O          10.37969835376234    3.96136596820959  -10.62704614237823
N          11.30040852361070    4.77460053118825  -11.13145616957286
C          11.96894799801231    5.25530842935236  -10.10275997543555
C          13.03684262693618    6.18814377265482  -10.04221018848544
C          13.53311847790393    6.43411012748487   -8.77534405589818
C          12.99614140797418    5.85498492811757   -7.61920440128898
C          13.56303533912596    6.76808307455814  -11.24486086206147
C          14.11975170479318    7.99062182813732  -11.40012087100897
C          14.96093086383673    8.28410445993751  -12.60054257510819
O          15.02344964070471    7.61269924269743  -13.60485944875650
C          15.71122409050415    9.50407938031192  -12.25400963634573
C          15.26084098593735    9.99636266510065  -11.02772672913167
C          14.16446268687727    9.16349498144616  -10.54596704219367
C          13.21786428286356    9.54341758787740   -9.63313889431390
C          12.03903410862755    8.81779466374790   -9.36014261070639
N          11.04240253050703    8.30484926261039   -9.11358459732013
C          13.26193154343485   10.74819167185921   -8.90039564874372
N          13.25117319489116   11.70166653915411   -8.26154713097155
C          15.83985895949523   11.14027423428760  -10.46186821026428
C          16.85009361613394   11.77054429480975  -11.13973292738087
C          17.31896051502036   11.30757256241837  -12.38899555309680
C          16.74296001586453   10.14076919640844  -12.97138860125291
C          17.21709433907900    9.68024335017569  -14.21653346395756
C          18.21982950197845   10.35160198615052  -14.86046793376462
C          18.78955772635096   11.50225694612910  -14.29219980842242
C          18.35062402219182   11.97031667450644  -13.08398327259992
H           3.86533063291838   -9.74006997172341   -2.13942047641376
H           2.79031629231230  -11.93968689018348   -2.32155354603390
H          -2.02782090273327   -9.37452409082036   -1.43642132317019
H          -3.04337728517237  -11.61936841607750   -1.60097702531700
H          -1.63183505111503  -13.59394347440611   -2.01016595370061
H           0.80489965253594  -13.35357706762725   -2.25815338723115
H          -0.13301718933149   -4.93378936822343   -1.63648939102943
H           2.03992822418548   -0.81546896078313   -2.16061964918312
H           0.62075962088663   -2.61561456896037   -1.45891680717624
H           6.01754116121391   -2.18847872719904   -3.91653391592854
H           8.11937496350990   -2.22209135320350   -4.47180269112412
H           9.91681698402010   -2.37668812044030   -6.14858837168456
H           9.86398727850613   -0.61591587946395   -6.38541925231613
H           7.54735059740386   -2.33861825460446   -6.81484608007001
H           8.46514774969190   -1.64786219216624   -7.98447470800254
H           9.51363430207108   -1.14249867204731   -2.66573811408887
H          10.66311244904557   -0.64104171403379   -3.92164517683748
H           9.91168030408342   -3.41905519554702   -3.43916515021789
H          11.34949082718939   -2.72096384089830   -3.08247133809952
H          10.39291491449881    1.22928322406402   -5.10879238175242
H          10.38779229430205    3.56536723930896   -4.19103258366084
H           8.51993886285485    5.15102099039675   -4.85945716122362
H           6.34267722708385    4.10165770555879   -4.40307938532769
H           4.31993991735080    2.50419333176962   -3.91461789052462
H           2.83111177066634    0.63608304229651   -3.42990196834232
H           9.75062020524923    3.38555539215684   -7.18888931697728
H          11.85994344784863    4.82402600389859   -5.49587989117303
H          14.38618044508448    7.08915787299652   -8.66775371206761
H          13.44789129906209    6.11063605153399   -6.67151290313999
H          13.54886402695015    6.13242436202499  -12.12404532327891
H          15.50704457872616   11.51283634853490   -9.50675654887923
H          17.31023804871164   12.65135515371583  -10.71570586616838
H          16.77238952158986    8.79534154754362  -14.64361052811278
H          18.58156818159148    9.99937959193253  -15.81480364388418
H          19.58019131126316   12.01645599341676  -14.81824651213402
H          18.78691529813742   12.85577028776407  -12.64476849635067
