93
 SCF done       -176.312849872850          0.000390464100
C          11.53948862652687    2.09201398290995    4.84414117410897
C          12.80547419672048    2.60396697348522    5.45277032081060
O          13.40814957622082    3.59365161472923    5.10670882404797
C          13.08824026419243    1.68431694991424    6.56750460732550
C          12.16851723502863    0.63240438804303    6.55432938425759
C          11.28903248707603    0.77623939490745    5.40026899191266
C          10.54954785114836   -0.21432106020863    4.81317307661132
C           9.95831367514514   -0.08809689828123    3.53673454824777
N           9.52579745319971   -0.05889627992803    2.47422697842382
C          10.38334279323008   -1.50532876749096    5.35773834958490
N          10.20641134708492   -2.56167348273013    5.76889986150710
C          12.21022889127177   -0.36463272182071    7.53764570907200
C          13.17750218161811   -0.29286683410537    8.50606008044326
C          14.13381445421892    0.74615403199097    8.53769005136559
C          14.09642997204770    1.77133445583437    7.54752016826192
C          15.05155879214989    2.80741325694686    7.58379335175066
C          16.00892651068867    2.82458639566396    8.56071088923095
C          16.05142776443408    1.81698960059092    9.53758347861178
C          15.13507048996854    0.80098938283496    9.52822093882133
C          10.80407381529782    2.87601862604231    4.02171173362522
C           9.44579656776832    2.69420948705755    3.64022639000059
C           8.37135949338172    2.07880266355157    4.44036973574983
N           7.20509177344180    2.09816692931812    3.87228440181832
C           7.39581466167541    2.69066927877470    2.65694190529031
C           8.79741313688574    3.10359662184083    2.50207864747883
C           8.99339764038426    3.73910970575793    1.22148110044459
S          10.41314464124697    4.35963677375532    0.66953286041528
C           7.69287183024059    3.71185731178404    0.60756852580189
C           6.73271634521688    3.05371981841834    1.51609019722475
N           5.48474498447514    3.01699570918710    0.96161765807961
C           5.59887997253618    3.59825639474372   -0.19051122183711
C           6.95625317181954    4.07576774701414   -0.50369820996863
C           7.30159848545616    4.75765136384843   -1.68974395204344
S           6.09538117870589    5.16305092329056   -2.87700896659296
C           7.27501074969039    5.95710842981554   -3.87423256424640
C           8.54000905461099    5.88002814122714   -3.29513300405219
C           8.55504487182667    5.21571893659004   -2.08347884439246
C           6.86267412617554    6.57838531989126   -5.07348667841262
C           7.68301949068961    7.26012975637303   -5.91938947107124
C           7.25472000911530    7.89474576895423   -7.10721351449819
C           8.18551514777208    8.58600989624157   -8.01644950244486
N           7.63635832305214    9.09292889828110   -9.07429028850127
C           6.30763669978544    8.79019933020038   -8.97427872998152
C           6.02846487630599    8.04556584881535   -7.73008233261938
C           4.62110670107932    7.76048855562836   -7.65481774150595
S           3.75126251718590    7.15237460303980   -6.39038800871235
C           4.08395207879048    8.22981815614877   -8.90840132173619
C           5.14029534704210    8.92546332392672   -9.67120024923940
N           4.63828119554581    9.43984546187138  -10.82831319045508
C           3.38519388186904    9.10529181581149  -10.84640867438906
C           2.95265520924210    8.30646649788364   -9.68737052326384
C           1.62900482372325    7.81844680341618   -9.51842451951539
C           1.19640022721682    6.73802534934742   -8.82608769677581
C          -0.25548658549196    6.63044649587417   -8.47194958611925
O          -1.15185675865960    7.26628128158333   -8.97762043427261
C          -0.30636661472714    5.65301244609598   -7.37529178778180
C           0.96121271573589    5.09759865966615   -7.18641263628541
C           1.87845086494703    5.63156274564317   -8.18760892665713
C           3.05018069146574    5.04865987656818   -8.59076792040408
C           3.79638082077290    5.47500577402474   -9.70692818338231
N           4.43218926385219    5.76149368797927  -10.61892508712411
C           3.64581566597756    3.93873731714461   -7.95591977903704
N           4.19924660300524    3.06211678522225   -7.46380942200304
C           1.18866195560536    4.16763018535774   -6.16490978005190
C           0.13824764013340    3.80170407205643   -5.36393491069856
C          -1.16158942267482    4.32428029841965   -5.54355737709691
C          -1.40276061030013    5.28107394989807   -6.57245541694674
C          -2.70010186373462    5.80423592853620   -6.74446731119346
C          -3.72037474483831    5.39131879410318   -5.93204763381634
C          -3.48937565162629    4.44761949792676   -4.91849738002802
C          -2.23907943324937    3.92616309933153   -4.72662805503802
H          11.49085320306071   -1.16738833983081    7.54058329990591
H          13.22179377942823   -1.05130307060101    9.27417827286031
H          15.00970135742622    3.57652178655408    6.82886448672521
H          16.74186708425892    3.61687503539523    8.58664549001113
H          16.81611598221343    1.85060861391299   10.29929281458660
H          15.16649026349850    0.02416744498346   10.27828098631199
H          11.29289171932008    3.77266863528933    3.65143140584396
H           8.48868432016277    1.68606151087129    5.43577473328028
H           4.75093557811524    3.70608160697635   -0.84515499474414
H           9.41785607759230    6.30085373285463   -3.75019237600797
H           9.43592131198831    5.06041155376423   -1.48593827783857
H           5.81000038535808    6.50625136962350   -5.31230392060077
H           8.73966461528109    7.33767107762527   -5.70072726836536
H           9.24410167367637    8.68391871774881   -7.84504449932621
H           2.74727778222199    9.38696109695713  -11.66585674705524
H           0.84531563412499    8.41980176259639   -9.97198297794409
H           2.17255202252180    3.76001972247050   -6.00029598949020
H           0.29631821616583    3.08942052976460   -4.56703313029767
H          -2.86655991786649    6.52913376267308   -7.52559225799631
H          -4.71466532336467    5.79035138446503   -6.06586403839407
H          -4.30953298299932    4.13605479364574   -4.28886564609993
H          -2.05912491071534    3.19970174619453   -3.94750247098539
