94
 SCF done       -180.896315854137          0.000298671049
C           5.26333817445796   -6.08369805121119   -4.47421249811103
C           5.78064709240611   -6.87850899967717   -5.64450530781142
O           5.37092664417570   -6.79480834175858   -6.77966740813938
C           6.86544937666102   -7.70587386452283   -5.10060000849900
C           6.91455514436712   -7.54333924011437   -3.71507794383081
C           5.83306616158271   -6.65832795475018   -3.29387839253853
C           5.37916226450038   -6.50267168964735   -2.00243730538412
C           4.16784213998494   -5.85355971647376   -1.69039768830775
N           3.18355033883056   -5.34165259746751   -1.39701156109844
C           5.94364818359114   -7.13410337426419   -0.87096409319044
N           6.35562619366897   -7.60002494406776    0.09295807359484
C           7.90249033492712   -8.17774705073793   -2.95406518556480
C           8.80163285391943   -8.99226693104697   -3.59380815129666
C           8.75436022426763   -9.21186930662984   -4.98646895315841
C           7.77231426608967   -8.54532467328419   -5.77665564979243
C           7.74511597143790   -8.75325340417867   -7.17037150274871
C           8.64726151120021   -9.59813447025957   -7.75598664296280
C           9.60663742750354  -10.26867800554833   -6.98005012722085
C           9.66047732885593  -10.08079936774141   -5.62650892845747
C           4.47914433939823   -4.99849343592260   -4.73735447173491
C           4.09065251133609   -3.87644938425498   -3.97413744765254
C           2.95138434594652   -3.04334503601669   -4.39095272583076
N           2.68865163891005   -2.04652514149909   -3.60082210936313
C           3.63137035427234   -2.09720869471046   -2.62297495631238
C           4.56538684497062   -3.21800224039514   -2.84746374231992
C           5.54900877447434   -3.22910928241097   -1.80336727288128
S           6.82957839419548   -4.25559398925930   -1.59833230298567
C           5.15655671240815   -2.17088177615092   -0.91522833015094
C           3.98737127508301   -1.47942528444909   -1.44879751817477
N           3.58777896042292   -0.48675176027699   -0.59660765565401
C           4.36189959842972   -0.57533335295093    0.43848410171883
C           5.37431300362606   -1.64330755435873    0.34847841791021
C           6.32161071040022   -2.02038307484668    1.32005766447171
C           6.27368910937697   -1.86462050188705    2.72377941710588
C           7.40339159605027   -2.44328232309336    3.37623092103246
N           7.57148846943165   -2.43124963861899    4.70300387243874
C           6.63793211449179   -1.86844472138299    5.42611147671335
C           5.46262220254343   -1.31220909140711    4.89535282746979
C           5.26792690733007   -1.31571054762515    3.53585040048280
C           8.31141073807620   -3.04911585411970    2.47093120520580
S           7.75925937775348   -2.86559104230059    0.84789779778476
C           9.44850175010727   -3.81170560741221    2.78128171361613
C           9.95756847211957   -4.06517146445909    4.14478512458804
N          10.94741077837677   -4.89841677431931    4.19530417932796
C          11.18917121618198   -5.27425315528933    2.90291691403286
C          10.28408750879046   -4.56887762770372    1.97803829740995
C          10.55209182787040   -4.97746711826460    0.62998264795529
S           9.92147531113300   -4.43388257339274   -0.79024925957822
C          11.56638743210811   -5.99474965228190    0.76563051117287
C          11.95697128397774   -6.14390906230620    2.17194648479103
N          12.90220141183699   -7.12145464761482    2.29909966127946
C          13.13231519730862   -7.55042523829939    1.09582663788482
C          12.32259702086125   -6.89339344296103    0.05461935901468
C          12.26741837791370   -7.18382761880951   -1.33575907328839
C          13.24676589999605   -7.67877035425972   -2.12922497441637
C          12.92093092318119   -8.25241763730824   -3.46819724468301
O          11.85680502547661   -8.15898510599350   -4.04006504638132
C          14.12497797197960   -8.99832741437163   -3.86972292833794
C          15.12528448910044   -8.82652090027698   -2.90972230090129
C          14.66542046334242   -7.87665147388634   -1.90258953310036
C          15.45934782992768   -7.13032290572027   -1.07558175604864
C          14.99372073711456   -6.00599829522914   -0.35811115540415
N          14.68505749126583   -5.04011102337311    0.17883785523263
C          16.85039030068841   -7.31993978658260   -0.93367913647697
N          17.97869873772196   -7.44981834742440   -0.77160634779537
C          16.35283286434323   -9.49044384296289   -3.03003536420768
C          16.55883161082985  -10.29994006352226   -4.11668619306424
C          15.58431784594227  -10.46451686888725   -5.12580935836810
C          14.32948435277388   -9.79776357094934   -5.01197633116778
C          13.36915777480292   -9.94590550085170   -6.03321031735148
C          13.63980374808104  -10.73101266459337   -7.12010269459970
C          14.86806440212438  -11.40168059530611   -7.23107715253629
C          15.81999453963378  -11.27159155992384   -6.25715024375160
H           7.96525487522944   -8.01863606627238   -1.88977442898328
H           9.57775729644712   -9.48570520638743   -3.02776681366438
H           7.00075000072087   -8.23779326073165   -7.75659051797757
H           8.62481765542440   -9.75842469344098   -8.82375598611373
H          10.30186769793938  -10.93992275145309   -7.46264960999168
H          10.39590816387906  -10.59469883880481   -5.02526511193389
H           4.12201918864145   -4.97214064991762   -5.76597179848260
H           2.35419027144305   -3.22515066225592   -5.26764944919998
H           4.28523824932877    0.14416003756245    1.23377272847423
H           6.81227226764925   -1.86718483561043    6.49361166520417
H           4.71948939852455   -0.89886394623777    5.55824141947456
H           4.35937824242527   -0.92564203018983    3.10527443318848
H           9.54853305415370   -3.60841081571187    5.02781473778232
H          13.82649112813000   -8.35565356587582    0.92755743587443
H          11.30357987068574   -7.02800671592997   -1.81341357140039
H          17.11678631245418   -9.37879142236483   -2.27788171886152
H          17.49586228658934  -10.82747257002378   -4.22036737676697
H          12.43072862400527   -9.42185649976044   -5.94292603486922
H          12.90909856442872  -10.83579568228807   -7.90805409260107
H          15.05828387722471  -12.01857183527553   -8.09671477497003
H          16.76936876629196  -11.77958038296941   -6.34390440383014
