120
 SCF done       -211.699624514482          0.000387654842
C           8.55045317873943   -4.13554676219692    2.36037339586868
C           8.67512598107253   -5.16703945014659    3.43526848025024
O           9.57491025699127   -5.96864402645931    3.54740461788902
C           7.51957398306508   -4.93375940398139    4.31620909274108
C           6.68373992820311   -3.97037134564009    3.74760937148818
C           7.21607766521414   -3.57470351522066    2.44858234823632
C           6.50028858985463   -3.02027266439566    1.42043054527716
C           6.99461928764840   -2.88803387061588    0.10758563130821
N           7.33105471512493   -2.79091042509563   -0.98585001635758
C           5.18943881074261   -2.51997918121168    1.55063708383611
N           4.14007368473763   -2.05784165418458    1.60827151444981
C           5.52743298938200   -3.54415207987948    4.41242071217026
C           5.22622040243258   -4.09937534268987    5.62811879150732
C           6.03853174209887   -5.09001846497494    6.22331762750899
C           7.22290863493223   -5.52496882255620    5.56059144044600
C           8.03296339532737   -6.50903032778680    6.16201508680811
C           7.68065736264455   -7.04517546994466    7.37027405788151
C           6.51344929562664   -6.62296601078759    8.02600096845374
C           5.71058837493206   -5.66666422394300    7.46687738009009
C           9.62998949179725   -3.79007693385996    1.61974916246249
C           9.80652519908985   -2.61289638290250    0.84201322534459
C          10.69235144675611   -2.49668216959393   -0.32157690826300
N          10.70367812956469   -1.31736379730939   -0.87037309214772
C           9.85473942099059   -0.55654977904406   -0.12877248095639
C           9.28140669685433   -1.34632794208527    0.97698862571933
C           8.47686960378009   -0.49603328404670    1.81679398467299
S           7.89136469355120   -0.86705499260843    3.31468384256164
C           8.44512452324186    0.76856671391065    1.12989857319446
C           9.33619666727869    0.70961484736780   -0.04490361141150
N           9.38017070748212    1.91686884817527   -0.67470696160561
C           8.61178757068069    2.70194971984409    0.02316900001123
C           7.97575713167670    2.06304753962599    1.17857805750077
C           7.06953931089845    2.70178911323578    2.09167433219404
C           7.15765479424490    4.06197796657762    2.32393876771636
C           6.33736446930745    4.65496412149076    3.29567755594608
C           6.27961100299680    5.96938303811015    3.76135929375034
C           7.02801533983965    7.13486209199502    3.22246053120269
C           6.03377473734827    8.17922207392129    2.66054664775742
N           6.67546436472188    8.95207228132783    1.62993159957722
C           7.98585908647758    7.74024053269741    4.26244876689737
N           8.85194164560341    8.74120960966980    3.65370790246713
C           5.28803088192637    5.99184861389317    4.81074291461688
C           4.88296784754152    6.97345608042373    5.63961892865265
C           3.84031556909859    6.73639307561423    6.67792204115183
C           3.24622063894010    5.37036397425312    6.67238300463658
C           3.68984694490681    4.38772902831714    5.86393668205176
C           4.72200297337414    4.64236919166617    4.93147643619355
C           5.37730653168318    3.83522334848351    4.01592384188794
C           5.26640434868157    2.46186318405695    3.71148641226150
C           6.09437470091651    1.91649447037284    2.78163152267919
C           2.86289867966265    7.87797622928747    6.58856122539802
C           1.56114125298770    7.79160709804124    6.30451155635800
C           0.71389516552861    8.94475026527544    6.20985621851173
C          -0.74736256095081    8.87536916928424    6.21028448094272
N          -1.34650219812166   10.03074440396150    6.14023002924909
C          -0.34966316325318   10.95097503969383    6.06456330160205
C           0.97637437989657   10.29473305999394    6.11334752118847
C           2.00596070204417   11.29575599951366    5.98930976271147
S           3.64660789923586   11.11867704649353    6.07151589202183
C           1.29671170648789   12.53425189812996    5.82258798771305
C          -0.15612761822741   12.30165362607451    5.93017963897700
N          -0.83462108892207   13.47623452821083    5.86438746814783
C           0.07121985007051   14.40149685003534    5.72561647482283
C           1.44459126578964   13.89624953178154    5.66298772317756
C           2.61130626165875   14.70026349190876    5.52979836363195
C           3.78605424914419   14.34505766581688    4.96003052083151
C           5.04014066618109   15.10512458667013    5.25533017714435
O           5.09956618354607   16.21227167337424    5.73958398933501
C           6.13140195686320   14.18758762437673    4.88796537613753
C           5.59978975710181   13.05387866848091    4.27152607577310
C           4.15469362532500   13.20312987210255    4.14590830023479
C           3.36379922304942   12.58197445508988    3.21387250749111
C           2.01393890672586   12.91401372430404    2.98476561801750
N           0.92095440836389   13.16417770837387    2.73858296034222
C           3.82858900309587   11.56984109217292    2.35415572362027
N           4.16532853053074   10.73740520955308    1.63790128664556
C           6.42818684954739   11.99688864619253    3.87881780677126
C           7.77723915233432   12.09823103479663    4.09283522792319
C           8.35261910463502   13.24568458444109    4.68352977321639
C           7.51806514628612   14.32382148778268    5.10102656342044
C           8.09908604485697   15.46141322919231    5.69629324410939
C           9.45478927572916   15.53264413999197    5.86511956444644
C          10.28199610428434   14.47601680065395    5.45298029047388
C           9.74419676685820   13.35738034262144    4.87738756234719
H           4.89655267318812   -2.78266039632469    3.98406530353167
H           4.34104687432229   -3.77887937209216    6.15864398510494
H           8.92771349752556   -6.82596095236046    5.64989624660206
H           8.30081965367405   -7.80035920712809    7.82954421724225
H           6.25382993608068   -7.06021665972307    8.97880189293469
H           4.81145596121354   -5.34023309555066    7.96941597969795
H          10.48071145451571   -4.46242862184206    1.67734035649405
H          11.28021753932026   -3.30114474809731   -0.72726967991620
H           8.45802182591896    3.72150697394271   -0.28524173875597
H           7.89220243585367    4.65672992401347    1.80217482360686
H           7.63142306837515    6.80010419577319    2.37248221553816
H           5.64116141353624    8.78026868332383    3.49633148644763
H           5.18594443701831    7.65522042968342    2.20856559548246
H           7.42885544098981    9.50662748559759    2.02124611520278
H           6.00742627878936    9.55131977617757    1.15893708695312
H           8.54959904612282    6.91278843195245    4.72743561715032
H           7.42075800416061    8.24120298513327    5.05267233490240
H           9.37703266781695    8.32345303472373    2.89064961331891
H           9.52403716895610    9.06993438707927    4.34047016901061
H           5.28230992085013    7.97555357744645    5.59143363027845
H           4.34552264710213    6.86449646325263    7.65339909620241
H           2.46121187542292    5.19008046515104    7.39099933437019
H           3.26048388681672    3.39791424197918    5.91061353594491
H           4.53285433806108    1.85484942194661    4.21955962506874
H           6.01762745354142    0.86998062916876    2.53477973320356
H           3.30559630205898    8.85093183666269    6.74835969488084
H           1.08042710305282    6.83447504172552    6.15275776156144
H          -1.31816275574625    7.96503882435579    6.27582623632088
H          -0.20512394027825   15.43818932583349    5.64770297484099
H           2.57800715718439   15.68352571414572    5.98887803854771
H           6.00683612667508   11.11014640457879    3.43707086093329
H           8.42353771668702   11.27986704393799    3.80818969949005
H           7.45418288699123   16.26738853977415    6.00917625897940
H           9.89942952535518   16.40634060798879    6.31747745866704
H          11.34983865859440   14.55395628840058    5.59457663815416
H          10.37883148213874   12.54360039459627    4.55695086110664
