96
 SCF done       -180.738108506545          0.000546803778
C           0.31051715372494   -4.42603845287553   -7.34864169956454
C          -0.87092550757926   -5.34032293036431   -7.32268035262095
O          -1.12806912653910   -6.14300187157053   -6.45521045311612
C          -1.64376236227463   -4.99311982742647   -8.52734564210710
C          -0.92966464394874   -4.06854052505740   -9.29356450829097
C           0.35801781128986   -3.81026336264876   -8.65988708631368
C           1.47496058328914   -3.29732094026670   -9.26175092181670
C           2.75763957178551   -3.33957035606761   -8.67214575853923
N           3.82661862986159   -3.41763620398919   -8.26210490774543
C           1.49724703689767   -2.76936206999331  -10.56959019717737
N           1.56172588944180   -2.31749285272727  -11.62219033719486
C          -1.46646232889404   -3.56295226192874  -10.48476686866907
C          -2.70283410204273   -3.99814488267478  -10.88550389264156
C          -3.44604481132037   -4.94038790569339  -10.14051330447588
C          -2.91293582558870   -5.45789825159553   -8.92375601600350
C          -3.65957687710463   -6.39451841738110   -8.18051078180187
C          -4.88537881309679   -6.80508528008881   -8.62752548567920
C          -5.41438769066473   -6.30088056858022   -9.82642167457456
C          -4.71236457806089   -5.38926950359435  -10.56676895803995
C           1.04422402785531   -4.22275384843635   -6.22915777950921
C           1.94082032298934   -3.15449799327406   -5.95422873479131
C           1.86935082263768   -1.77244224805979   -6.45914729273151
N           2.76005893849092   -0.97418043163912   -5.95493812706165
C           3.50683766208150   -1.73949302680902   -5.10628110164717
C           2.99937955530373   -3.11725732949260   -5.08010227215509
C           3.77916174247691   -3.91856481234960   -4.16797695894304
S           3.57599356507168   -5.52653697642375   -3.85416827597555
C           4.73011757327323   -2.99879506345398   -3.61667046076985
C           4.54800884981808   -1.66836649277427   -4.21641295448879
N           5.43270115642877   -0.77349786304162   -3.67961012313686
C           6.11550152540280   -1.43878225250791   -2.79971355632887
C           5.73865731642721   -2.85363516162927   -2.68138292600494
C           6.28514955521459   -3.79249265784075   -1.78337711768774
N           5.90370963425193   -5.09903190874155   -1.79193362500410
C           6.53060541940642   -5.76600120571204   -0.79190350801548
C           7.36032294707210   -4.85200168404506   -0.11617674463309
C           7.21495326287251   -3.62915234507187   -0.73917284416974
C           6.33214754979089   -7.11645176941061   -0.56095332514757
C           6.13328704045927   -8.30316567011482   -0.37824978065801
C           5.88388434874478   -9.65094649594793   -0.18757435378325
C           6.02412289146797  -10.27066617253010    1.01287439082786
C           5.72857461185857  -11.63709133184410    1.23585207359200
C           5.50580772091518  -12.68876939796117    0.23029628774453
N           5.20796286676636  -13.85178545817219    0.72430104095627
C           5.18763642747546  -13.68237739225863    2.08044684261093
C           5.55876747004337  -12.30182853872350    2.43250294496324
C           5.45626278930198  -12.10620345527330    3.85084890033237
S           5.76157974359279  -10.74642983385516    4.72093080353577
C           4.98780685485078  -13.38053522992248    4.34555250693746
C           4.84834851679261  -14.33780682854343    3.23352312114783
N           4.33178399472549  -15.51713238042490    3.68248823730700
C           4.06975077957357  -15.32904483756712    4.94001417827870
C           4.43057151451345  -13.99280501800276    5.43910601429124
C           4.22946308361664  -13.50543804809970    6.76307685670485
C           3.17924156883025  -13.79425946101362    7.56542458939279
C           3.23258216693858  -13.52995493904273    9.03515743295618
O           4.05180665154844  -12.84530434792938    9.60326119221389
C           2.12900141408445  -14.32336611998735    9.60317371096701
C           1.39309725071460  -14.91233674799728    8.57176712560742
C           1.92661936135788  -14.47236195422598    7.28817014561267
C           1.26346373591983  -14.48168832405115    6.09077473234688
C           1.68614201555459  -13.75814227333247    4.95433563666793
N           1.93775064520208  -13.12272091571281    4.03216047120346
C           0.01763162334733  -15.11120937388607    5.88209415024861
N          -0.98517166516001  -15.62097188042934    5.65653776889784
C           0.30409586744979  -15.74632185960202    8.85764359218997
C          -0.03439844216289  -15.95988159995740   10.16832545632946
C           0.67259151825881  -15.36041110140800   11.23404537493236
C           1.79070899205676  -14.52048936798915   10.95642999063874
C           2.49428985678062  -13.92561502062578   12.02328265125018
C           2.10140221594874  -14.14939547037035   13.31424306760350
C           0.99964415744517  -14.97377500934504   13.59343664163430
C           0.30137676813281  -15.56775602710589   12.57785070719805
H          -0.92413619988672   -2.83857796763858  -11.07061684696271
H          -3.13329986031661   -3.61607297698804  -11.79982428922007
H          -3.24383323866194   -6.77509963263554   -7.26098291583150
H          -5.45662332956126   -7.52304403538981   -8.05843827184522
H          -6.38393962415555   -6.63939493259267  -10.16036049308691
H          -5.11745501727992   -5.00046308568829  -11.48972689615198
H           0.87881788102015   -4.92806288013080   -5.41929901317225
H           1.12612963169717   -1.39996706998419   -7.14278881488952
H           6.89074584712181   -0.95743333865526   -2.22999715616339
H           5.20170475936325   -5.48536616045243   -2.42999545278316
H           7.98860513388304   -5.08757761646472    0.71964708806056
H           7.70672636217753   -2.71364566869808   -0.47705613436414
H           5.52348940784413  -10.19215323905235   -1.05333579721561
H           6.32797927310823   -9.69438984161332    1.87708468829527
H           5.59834525471452  -12.56459451297751   -0.83483456530539
H           3.67125531785640  -16.12565948848768    5.54502200005906
H           5.00554760290080  -12.87358692313059    7.18296336453946
H          -0.25191170020048  -16.21923080494544    8.06452686408788
H          -0.86963841980784  -16.60237135543139   10.40666384492115
H           3.33896936712393  -13.29413144350299   11.79765929891088
H           2.63824469252630  -13.69049863283069   14.13083115027215
H           0.70669962521181  -15.13567342236570   14.62011736943788
H          -0.54710055794195  -16.20190554493866   12.79008304433566
