106
 SCF done       -197.252801450815          0.000827872316
C           0.54191807664820    4.17309170079397   -4.42479867093897
C          -0.77155118731041    3.56206540474495   -4.77706667071361
O          -1.20262188831970    3.39036816623735   -5.89537559156278
C          -1.36672251575722    3.17107061480678   -3.48525377596385
C          -0.55915861825618    3.62601683540428   -2.44144466899758
C           0.54913299879597    4.39732921747171   -2.99540923106879
C           1.27980170567654    5.34372790044124   -2.32815400735366
C           2.09041412266676    6.29502220457284   -2.98449422960276
N           2.70336763445516    7.12558194307848   -3.48583351122301
C           1.24420521387482    5.53904765514173   -0.93324510309342
N           1.29006155155495    5.71413067969141    0.20061991042634
C          -0.89227238961954    3.35313977805984   -1.10865583939661
C          -2.03037022778492    2.63514306728836   -0.84879711472838
C          -2.87780978632340    2.17349432210636   -1.87978619830003
C          -2.54637367482130    2.44136848693375   -3.24021735322974
C          -3.39473634487075    1.97607434256054   -4.26553708877057
C          -4.52788202618030    1.27604481616673   -3.95510846056304
C          -4.85990401861900    1.01060436416625   -2.61682478696147
C          -4.05397392961122    1.44785657321335   -1.60182462076703
C           1.52062740128997    4.26565968934990   -5.36366536603770
C           2.91208049102309    4.41036368678585   -5.15967028565591
O           3.48004355477876    4.31791727202701   -3.93154979137763
C           4.81881689658037    4.43042889079784   -4.04053083014077
C           5.13601379258455    4.59217964933895   -5.38427025433559
C           3.93031539251385    4.57212221583540   -6.09370378364421
F           3.76693754048898    4.68596882382117   -7.40686096046315
F           6.35659006986988    4.73463547739153   -5.90416398372796
C           5.63036864138421    4.37512201035746   -2.85497290650601
C           7.00498092236456    4.37935743966362   -2.93182123724880
C           7.77101840652089    4.30639374801612   -1.75155061285674
C           9.14322498575705    4.26200173604170   -1.54687621473636
C          10.24216539135025    4.31118420604130   -2.55377759456088
C          10.19974055661041    3.09260833704447   -3.49711635536522
N          11.52789143457466    2.85795295027584   -4.03127690588082
C          10.21563124937966    5.63813005914022   -3.33575332331760
N          11.42717296821086    5.78811898063110   -4.12872959270699
C           9.34396344282607    4.13431172798212   -0.12096117941528
C          10.46597962579329    3.98120639589756    0.60540502449219
C          10.41517074105946    3.79516012879558    2.08620991641600
C           9.04941345024296    3.92216826978713    2.68425233967246
C           7.93698831017440    4.06221741592282    1.94167064283423
C           8.02644501922304    4.14216777985800    0.53093415648971
C           7.08055820674903    4.23901116429063   -0.46608669499507
C           5.66600926482305    4.25637935926691   -0.42519183199914
C           4.96682093747086    4.31355514772030   -1.58310099774998
C          11.40579863059301    4.71080826081351    2.75369032090478
C          11.13582837662730    5.98449516421490    3.05811565670411
C          12.05525528550070    6.82378375160889    3.76665246806368
O          13.21466725459060    6.32134757432074    4.23633592740338
C          13.85884882419621    7.27427516133656    4.95431828348898
C          13.10261989575401    8.43954924197659    4.90939799143160
C          11.95004612469037    8.14718582378232    4.16331299484147
F          10.94582857884468    8.96935816224847    3.87500365847657
F          13.42183984603201    9.59284173312149    5.48112428237994
C          15.10641213267028    7.02862575730501    5.58217948739576
C          15.75194435286520    5.84334214974129    5.71825657952812
C          17.21473030904720    5.82119731915778    6.02028322579617
O          17.86346116169391    6.74013076748223    6.46501746039727
C          17.66807171651006    4.48382272639918    5.59742464666253
C          16.56897982502670    3.71974343865725    5.19781461460800
C          15.34754920360351    4.48170792437251    5.42826070302763
C          14.09412951415275    3.95590226894241    5.58679148600368
C          13.02632790192373    4.66265236732213    6.18217878656657
N          12.14828766551160    5.16493703306041    6.72338044035283
C          13.72701293907165    2.64254155652681    5.23426448627137
N          13.33973096473159    1.61394969895398    4.90134644141588
C          16.74130452015748    2.41295183863546    4.72315264049153
C          18.00908879852789    1.89613944027537    4.66463665587067
C          19.14002569664308    2.63404442690796    5.07863061049638
C          18.97781261698396    3.96682971000215    5.55890818250597
C          20.10965938407545    4.69769028103225    5.97366192896447
C          21.35248244267454    4.12918579062364    5.91786526981525
C          21.51794405178256    2.81712900185174    5.44601709904306
C          20.43760799630710    2.08563287946501    5.03437615903307
H          -0.26125117711986    3.69032212721079   -0.30227179482468
H          -2.29974695469516    2.41039213386781    0.17318016757521
H          -3.12928058249000    2.18532069811131   -5.28971206427176
H          -5.17793164659447    0.92120840400315   -4.74081347364802
H          -5.75969271544020    0.45614685187267   -2.39472470540563
H          -4.30746127792994    1.24531844862616   -0.57121306608069
H           1.21907155183387    4.11694804457706   -6.39405016128413
H           7.49772831013684    4.41794601158586   -3.88818614940222
H          11.20182044852277    4.25644987275764   -2.03022793995048
H           9.43675829723453    3.26138098992637   -4.27272507507464
H           9.90366345381558    2.20677433030153   -2.92399974410018
H          11.82997791084687    3.69763665314659   -4.51935845455164
H          11.51130268428802    2.09018443810605   -4.69368507259810
H          10.06693032888090    6.46121285714119   -2.61555581282289
H           9.36913841959601    5.64582872352720   -4.02515268719798
H          12.23238709389586    5.90031040491431   -3.52044004879442
H          11.36307789665324    6.61328262821797   -4.71480069726141
H          11.44753187540924    3.95977064879019    0.15213209309080
H          10.75948679382785    2.76504721051358    2.27598954582432
H           9.00612137298684    3.87065191223297    3.76096788963364
H           6.96539198299551    4.12126602483962    2.40897461942227
H           5.15799122949927    4.21694047336668    0.52634878684830
H           3.88879298814524    4.31821496930475   -1.57512236130910
H          12.37704880542413    4.29967877527099    2.98903847865790
H          10.18314526519714    6.43183995784367    2.81471672707454
H          15.63123641817678    7.91101262509873    5.92959052134398
H          15.89563707587848    1.82718440020177    4.40065404042644
H          18.16108453358017    0.89182484206114    4.29649098604089
H          19.97103488990574    5.70479946519947    6.33367829299369
H          22.21854809853162    4.68830322901827    6.23840185608255
H          22.50838353063323    2.38839203225915    5.41074931496967
H          20.56226369747804    1.07550793039424    4.67211313577397
