93
 SCF done       -185.358932986137          0.000884243006
C           3.73984653747093   -5.18518993686433    4.07445233049206
C           2.27663833709675   -5.36308769742395    4.32887846775418
O           1.45790418343673   -4.47656128657130    4.40034442600133
C           2.08158663148283   -6.82048987105729    4.40168840397315
C           3.32034962931886   -7.46553163840992    4.34476075939635
C           4.38136446336962   -6.46695549005826    4.29783464894616
C           5.69505489694431   -6.65723293327523    4.63150397140101
C           6.60035595925267   -5.59694868057806    4.85666705579928
N           7.34775148443533   -4.76863072792068    5.12587820575706
C           6.26747541205047   -7.91899327475986    4.90048849558192
N           6.77907323772749   -8.92417299728167    5.11085243466708
C           3.39883282497378   -8.86407824222026    4.36983579370937
C           2.23724922141336   -9.58605128674556    4.46116179701299
C           0.97052106761265   -8.96575483817024    4.53765084430341
C           0.87690073904321   -7.54328721337610    4.50465312937123
C          -0.38935090734802   -6.92824404333148    4.57800929819453
C          -1.51861109679038   -7.69293449652399    4.68433449804334
C          -1.43243763176567   -9.09391636020607    4.71949609515170
C          -0.21668484697049   -9.71754887345083    4.64711449690956
C           4.22501881364088   -4.01229820354267    3.60659590339491
C           5.49660619721679   -3.79840671248931    3.00274373228161
C           6.24346292767660   -4.75213862951854    2.16245526801079
N           7.36968226219146   -4.29570559234666    1.70849392457098
C           7.48851350654983   -3.03449345384509    2.21556333272620
C           6.28946169658712   -2.67962021900546    2.99494352513882
C           6.43183609218897   -1.35995811062949    3.55870033013309
S           5.34355775008496   -0.57893930835209    4.51111031972898
C           7.73110756524150   -0.92761569571618    3.11754749252539
C           8.35604960993793   -1.98011254688777    2.28946512844978
N           9.60303243868645   -1.59934758096827    1.89051983280390
C           9.80681037737557   -0.43396203690374    2.41933229012390
C           8.67842729821070    0.06664282346237    3.23025860589990
C           8.64175248010429    1.29790722203356    3.93044596036182
S           7.18754073293599    1.87777618157931    4.67556901086992
C           7.98117284916957    3.31007499045291    5.23584647033570
C           7.30434279409116    4.37378663351971    6.00815566389356
O           7.88889289327166    5.36156336682251    6.35949816412985
O           6.01233194910391    4.18003030769068    6.29413687372162
C           9.30460638246472    3.33665672804856    4.87400703638648
C           9.68747576183922    2.20200326799165    4.14245884770162
O          10.91528530217047    1.96946926293758    3.61552706337450
C          12.01763616843087    2.48668393873836    4.17473894918829
C          12.23859728078265    2.88725074513357    5.57157787073448
N          13.45060604554864    3.28911192850335    5.80921358126753
C          14.11864376426311    3.18848641003130    4.62225050935691
C          13.23344867555003    2.65744421930035    3.56974106984852
C          13.95737150386398    2.51732510819528    2.33193432698752
S          13.40813163098223    1.96271582823874    0.88889077513303
C          15.28185509020455    2.99017299549111    2.65111550309888
C          15.35096520243517    3.39621059402878    4.06753263849180
N          16.60416040953964    3.84061372658543    4.37538088826928
C          17.30387190503184    3.69448751838577    3.29380834236570
C          16.54691328874262    3.15599104436063    2.14742672281501
C          17.05295606991800    2.94546001363502    0.83418180023206
C          18.32180530663792    2.60742476178509    0.50630919363409
C          18.83912646917116    2.81582532298881   -0.88196448894059
O          18.16688640333665    3.02503881659658   -1.86444759028061
C          20.30481999708856    2.77509384094409   -0.74567327918546
C          20.64681141554231    2.41368661617057    0.56038448832384
C          19.43170930619439    2.15194320355205    1.32159987073508
C          19.33145757114362    1.41653672311572    2.47150022839775
C          18.10068720722511    0.97262539533386    3.00347328808032
N          17.13228586461570    0.52894633895134    3.43031251779198
C          20.43947319362858    0.92932833924874    3.19697440764570
N          21.30961708633636    0.52657436434449    3.82676999907218
C          21.98960334710811    2.33084439098195    0.95078503940691
C          22.96132539073693    2.60898221480791    0.02500543885259
C          22.65111682293509    2.96690118666821   -1.30567152184783
C          21.28798282265682    3.05613569016387   -1.71469249221275
C          20.98329690631934    3.41532329895207   -3.04322588243957
C          21.99016590559351    3.67483262512258   -3.93219266497065
C          23.33409144725458    3.58897699921682   -3.53501992281800
C          23.65877912150988    3.24298200715603   -2.25166069575059
H           4.35149310991268   -9.36461255759042    4.30835571335497
H           2.27923021001281  -10.66544074992489    4.47813868465229
H          -0.44431931488189   -5.85148312937061    4.54986923013641
H          -2.48815603630537   -7.22150060670226    4.74226904638657
H          -2.33702067176436   -9.67749493664757    4.80415682047042
H          -0.14808340612107  -10.79526787165457    4.67493043898593
H           3.55736110610717   -3.15765757043319    3.65616097940657
H           5.89301740860643   -5.72950637366040    1.87750186390592
H          10.72380021095387    0.09731792884506    2.24016800151817
H           5.65708435855383    3.34220365914545    5.96513269289408
H           9.94892325418613    4.16514763978215    5.10914898490459
H          11.51533924121289    2.82988158559243    6.36632756422701
H          18.33526532994645    4.00153334461234    3.26261342832609
H          16.37007553747307    3.12727640874554    0.00992840376318
H          22.25508814503232    2.06596259560983    1.96140199558329
H          24.00197246463418    2.55590550074821    0.31032603472468
H          19.94769224302634    3.47902119530228   -3.33771236186431
H          21.75642811992325    3.94893485924479   -4.94990343481504
H          24.11246715657409    3.79937403958955   -4.25325778188214
H          24.69217508857417    3.17524602525080   -1.94424514517733
