112
 SCF done       -208.963219171405          0.000434833469
C          15.21463171513960   -1.36709912952146    1.08603843608497
C          16.66476022771255   -1.02489617581875    1.19161089673693
O          17.13125994550708    0.09041170172710    1.22985767231315
C          17.35245669068909   -2.32367652171324    1.29930627555727
C          16.43182870690559   -3.35889811552442    1.12040020407308
C          15.11945180698692   -2.79157447307229    0.83374796317252
C          14.07377929363333   -3.42922610498331    0.22302110521092
C          12.93590880626816   -2.75893242727423   -0.27747578363800
N          12.02678068298942   -2.25809220473047   -0.76716215783868
C          14.05480707794249   -4.80776136602099   -0.07613277869368
N          13.98562440083483   -5.92526010283904   -0.32691661589754
C          16.83706567217454   -4.69737685775959    1.20491274436573
C          18.15543621259650   -4.97019096182954    1.46132754226136
C          19.11433369458986   -3.94771180971071    1.63495863619239
C          18.71323341636505   -2.58192566767700    1.55560627498794
C          19.67285101679381   -1.56460931472067    1.73291125758812
C          20.97932077266160   -1.88810186810151    1.97656090840399
C          21.38032696173988   -3.23143980800428    2.05461399572091
C          20.46997330791604   -4.23907734558181    1.88821998157401
C          14.26359109923724   -0.43444139611202    1.32872683344189
C          12.89348277935220   -0.66716256248092    1.63280656589802
C          12.33278373043853   -1.82474839654006    2.34118631208555
N          11.05028592471541   -1.75735178368000    2.54555713379411
C          10.64833289160179   -0.58270894003736    1.98441620623471
C          11.80270280320241    0.14697290237397    1.43740426763597
C          11.37065374934628    1.37416666078550    0.81452655096966
S          12.30918609224682    2.48571648762457    0.05101544983696
C           9.94267629653963    1.37591604358620    1.00039768643917
C           9.52663332803441    0.16438901424387    1.73257597153378
N           8.17488240389619    0.15484910692797    1.90345362765197
C           7.73456493271702    1.21560064845966    1.29099011346679
C           8.78151578736459    2.02398503307910    0.65861208962441
C           8.63505227559537    3.26299028466543   -0.05708603468200
C           7.65611870586076    3.59435851225143   -1.05675141174152
C           6.70210583480110    2.71723582686663   -1.62030931886187
O           6.68446786815431    1.47838850655086   -1.09641850836077
C           5.91044118087736    0.41688835268516   -1.63236891136514
C           6.52426705546076   -0.18002680291110   -2.89162614887831
C           5.88776797610929    3.24780940898076   -2.61730250145944
C           6.00728715031257    4.59537741742001   -3.03910524539378
C           6.99027724327625    5.46329537209772   -2.50432527990817
C           7.80907779889377    4.92615898272272   -1.52101693901067
S           9.15818802396040    5.70822643233166   -0.71234375878904
C           9.50131143122640    4.29642314423961    0.17547242819521
O           6.99982924451729    6.69743641405277   -3.03804572559698
C           7.91070933437026    7.68990513206214   -2.59882832165053
C           7.60681929610163    8.95848338721611   -3.37970084301345
C           5.06781635331619    4.94739369480927   -4.02686516788578
C           4.24277542355036    3.91268578081501   -4.39285455071113
S           4.61280598270176    2.45431870650447   -3.51011859587728
C           3.14322690368246    3.94818786830496   -5.28623144459377
C           2.57028532495319    5.15848482214389   -5.89109505490450
N           1.46009925457681    4.96046434232270   -6.53473255474162
C           1.19887379051947    3.62516855111988   -6.41914226722436
C           2.28165694097868    2.94959740664487   -5.68373785899554
C           1.99631798619084    1.54523120506053   -5.58120747580365
S           3.01957646749476    0.31937424406160   -5.17153414757425
C           0.64322223921266    1.42619089341704   -6.06036455703490
C           0.21002357719563    2.70650512387887   -6.65619041841413
N          -1.05348431409162    2.59931412416092   -7.14876072643586
C          -1.43968376014294    1.38928873408114   -6.87245557036070
C          -0.44674241259339    0.58903258565327   -6.14376952543737
C          -0.66052828822867   -0.74066216262475   -5.69058620217838
C          -0.04287145252511   -1.39822693156475   -4.67961572912290
C          -0.10794399563516   -2.89293859418817   -4.62615729723188
O          -0.91625347245613   -3.58660291939600   -5.19951714918442
C           1.03899299576511   -3.28961060363235   -3.79381231554326
C           1.63753095205563   -2.15072712201898   -3.25098670330777
C           0.87343697356836   -0.97147046764770   -3.64189345018577
C           0.86260774972853    0.22980961318859   -2.98184231199698
C          -0.04998623519270    1.26554118562516   -3.26168504628644
N          -0.78278413014239    2.13298684450367   -3.43089955994660
C           1.77557364772845    0.58416356639735   -1.97025587774736
N           2.52461789881086    0.94935478648474   -1.17968351051657
C           2.78773974075558   -2.25514682457057   -2.45946581917384
C           3.30830488298879   -3.49956550927713   -2.21783340460190
C           2.71282310147352   -4.67428231223630   -2.72861007243910
C           1.54663537569632   -4.57965784808167   -3.54317425468043
C           0.95876322514993   -5.75445471935397   -4.05372905465878
C           1.50160988572786   -6.97615690383706   -3.76374549297924
C           2.64892027886066   -7.07560434379267   -2.96071498866345
C           3.24292878748703   -5.95141446992452   -2.45543573673256
H          16.12555163588626   -5.49796066900205    1.08299683975548
H          18.48431551814259   -5.99666103215799    1.53527697148571
H          19.35363602267283   -0.53621956002411    1.67172315181423
H          21.71411559423771   -1.10867750235121    2.11170823015971
H          22.41699942899699   -3.46363805867738    2.24844300322036
H          20.77650926365113   -5.27335876558906    1.94707963127474
H          14.59778151727716    0.59820733034219    1.35438577911376
H          12.90592349018610   -2.64659697475721    2.73517150700026
H           6.69119587253063    1.47167987303107    1.32420184892135
H           4.87735862286349    0.73781283028865   -1.79936477326597
H           5.91404731837617   -0.32619059740232   -0.82908179650541
H           6.58511120386408    0.55826339470669   -3.68701368370437
H           5.90809199281255   -1.00481363271338   -3.23785328731910
H           7.52556195821448   -0.54758350573778   -2.67919894243111
H          10.31762243134717    4.30469042920051    0.87080928645927
H           8.94133247426327    7.36582319734982   -2.78829432668449
H           7.78678869010827    7.86616168705322   -1.52334288155344
H           7.72452477225197    8.77766200652260   -4.44452184053561
H           8.28806371143229    9.74685712245960   -3.07503232664985
H           6.58540165563326    9.27737293962804   -3.19130211968984
H           5.01833316107390    5.93491637574062   -4.44616472413615
H           2.99661361799558    6.14384391737670   -5.82796508589321
H          -2.41909084023679    1.04357811768900   -7.15309589451840
H          -1.37638683462416   -1.32696314983787   -6.25974974851517
H           3.26612410222118   -1.37391391095194   -2.06486521809418
H           4.20074001399313   -3.59916766860078   -1.61680932099454
H           0.07841606249312   -5.66631047706331   -4.67059312232560
H           1.04908904406484   -7.87604689026737   -4.15256529259877
H           3.06079298502906   -8.05027286596314   -2.74495520889260
H           4.12586518776557   -6.02552094467771   -1.83740160827056
