123
 SCF done       -209.287888446393          0.000695702305
C           9.97660148476592    6.86958565045965   -5.71832898821034
O           9.11015721800348    6.64417257264099   -4.63595870766611
C           8.14481484751322    5.63368328739005   -4.85335647138536
C           7.74340883705425    5.04300165390126   -3.49165031116384
C           6.43728339856422    5.53037563109527   -2.95027830363874
C           5.83482349465555    5.03841408111189   -1.83623328766849
S           4.32421344264974    5.79360790963471   -1.51988523070534
C           4.48551698384780    6.80341183769033   -2.94154756235587
C           3.42185659048124    7.74012962687957   -3.25754251115519
C           2.68835707951697    7.70107812072917   -4.37669169795952
C           1.57547173341487    8.56591799190947   -4.69640429486311
S           1.44177325937633    8.78135899226292   -6.47475650429263
C           1.03062894053560   10.48341888718067   -6.56014147065350
C           1.45155047144834   11.33725424797954   -7.52933059360342
S           0.79633246289919   12.91567372722353   -7.32049939060472
C          -0.03231320489878   12.42376786937489   -5.89424484997595
C           0.17474200194229   11.11008336728429   -5.61589939222614
S          -0.57856938517210   10.25150917777092   -4.27991691783599
C           0.70732576785149    9.10951844271873   -3.80670554069791
C           0.68761118574892    8.75333067722207   -2.41339970554105
C           0.14784307592968    9.50498137242186   -1.43326367484445
N           0.09710443028157    9.18155212295652   -0.10729782603317
C           0.87727481144495    8.08837951318461    0.44063962600544
C           2.38898821372510    8.32949820722901    0.19632208137448
C           3.25157336163002    8.37419628913438    1.40664839624903
C           2.74578429087296    8.46421482096992    2.71668590950346
C           3.73651734292242    8.43753916049379    3.65514545776029
S           5.29909197207185    8.27713374505288    2.96671826832260
C           4.62741695536108    8.26774969186256    1.35552157340308
C           5.40501449909460    8.31386114820855    0.16621578583298
C           6.63683201978862    7.83153576386117   -0.12350224423015
C           7.36193403931226    8.37719141753149   -1.30556380390442
O           6.88278684606628    9.08814081736599   -2.16388117227485
C           8.74767449722336    7.91014895592968   -1.15762705202863
C           8.82880496246473    7.03235881034815   -0.07466572227033
C          10.05118955454284    6.44127311033812    0.27049880334405
C          11.16421171474667    6.75124051776014   -0.46710964032685
C          11.11912600599757    7.65417602205867   -1.55203637084703
C          12.27663007881856    7.99371013563904   -2.28120707577540
C          12.21414735004029    8.89910558292982   -3.30433240433459
C          10.99228157875331    9.49866578335275   -3.65212887324116
C           9.84500744180643    9.18119013895961   -2.97945717713665
C           9.88119781235211    8.25770417254715   -1.91638141643190
C           7.50487889739418    6.86811064244963    0.51702976346989
C           7.10980927517315    5.84139705542752    1.33202701151920
C           5.76193980407291    5.55530359116015    1.63194510358366
N           4.68033974896642    5.23827764399333    1.84998052423090
C           7.98154112221841    4.87659493255247    1.87779119792700
N           8.64047551771320    4.07175184452492    2.36325104626679
C           1.28000051149749    8.62022404649298    2.94326809702072
C           0.44886649077818    7.83471953193908    1.90909105309540
O           0.34089094522340    6.46392320615931    2.20644322440586
C           1.52630225743638    5.69365537662892    2.21200493926259
C           5.65939709418739    6.54122153896553   -3.58306111044295
C           6.18528810990690    7.22134007101583   -4.80212700849497
C           6.93190163224581    6.19077550889472   -5.64619605785039
N           6.02634523909927    5.13168340418582   -6.02223539385562
C           6.24898808929528    4.22451440217790   -6.98023913508088
C           7.22148302524805    4.28080499086648   -7.93809442190030
C           7.38749975390095    3.34937175380236   -8.97563657632621
C           6.91273502783962    2.07357444819623   -9.15273203852944
C           6.90588171137292    1.52966929120430  -10.53387112878634
O           7.44297435222192    2.02980014395704  -11.50189275438915
C           6.09542469349106    0.29719675713314  -10.47375124460050
C           5.74948717154812    0.04668655071925   -9.14855054305176
C           4.94960930915539   -1.05458814361010   -8.81868487411614
C           4.52371641857112   -1.88476777065851   -9.82314517446906
C           4.86983283082742   -1.66612477271191  -11.17375953977396
C           4.43722763277001   -2.52996979019999  -12.20090619211124
C           4.78234792395885   -2.29321006850606  -13.50261265179780
C           5.57394253660965   -1.18294866376489  -13.83994432068204
C           6.01370314865430   -0.32293749914195  -12.87270877145864
C           5.67566088873048   -0.54312178218887  -11.52136988728441
C           6.35867340042814    1.06666497781826   -8.29078794451430
C           6.55961038857570    0.91352673397921   -6.93694683121573
C           7.33338046190811    1.77906993749604   -6.14998152422360
N           7.95631542044676    2.44875550053517   -5.45243923983836
C           6.07856335940921   -0.16654336998806   -6.17176679267028
N           5.70643716367950   -1.00298126701927   -5.47757385616923
H          10.76332185923962    7.52391942067815   -5.34822970113518
H           9.47158364603442    7.36119329029181   -6.55816200675110
H          10.41873000117195    5.93043344710277   -6.07113804616744
H           8.59409462114011    4.82605300362926   -5.45071409636192
H           8.54618200045411    5.28457113841861   -2.78967626561899
H           7.70523193245348    3.95495320266103   -3.58481980368679
H           6.17490175650445    4.25978581296145   -1.18246908757923
H           3.20553358140159    8.48223800506565   -2.50436628707856
H           2.94400320969427    6.99449548334916   -5.15749624289673
H           2.08638000256435   11.12106994464123   -8.36395290062330
H          -0.64211821252035   13.12041796092114   -5.35647354259098
H           1.14184894508693    7.80244559639154   -2.18536826872923
H          -0.30944986536684   10.45517460691225   -1.67370753965741
H          -0.09619806048691    9.94304403031551    0.52374151617940
H           0.57657630287104    7.18791091329951   -0.10824299289492
H           2.49811655448486    9.27914444992954   -0.34012650046734
H           2.77428417630034    7.54509938027653   -0.45645200063138
H           3.63950764152075    8.50363125953202    4.72093671938929
H           4.96993072829822    8.91243790463611   -0.63185213333518
H          10.12139937048896    5.76616255730225    1.10762646858217
H          12.11495773535567    6.30641262561845   -0.21132001361971
H          13.21545170722403    7.53212326442216   -2.01140333118359
H          13.10747808833302    9.16096048328162   -3.85267274545179
H          10.96765306602640   10.21619592268481   -4.45942996903893
H           8.90167952420055    9.63393764831673   -3.23869847827319
H           1.01951982480099    9.68017135421520    2.86106176935542
H           1.00219704280702    8.28464406097662    3.94346226319388
H          -0.59366454684555    8.17070074460834    1.99325548290510
H           1.20015594530662    4.66601157340348    2.35723355942090
H           2.19284627972322    5.97217188735377    3.03141545563204
H           2.07588198138854    5.76256636340387    1.27073755335919
H           6.89219297365058    7.99720460914646   -4.49580553665072
H           5.38270008980055    7.69101599421250   -5.37087128420888
H           7.30334525849401    6.66723683320487   -6.55915934935670
H           5.30576769741827    4.93671321738082   -5.34251588993242
H           5.50744066743822    3.43785362006949   -7.03155191764594
H           7.87756860634727    5.13821094688813   -7.96672459278912
H           7.94173026402334    3.71223321205120   -9.83748484792239
H           4.66070304307591   -1.24450158422750   -7.79782786487031
H           3.90248615516183   -2.73637207197538   -9.58535423956182
H           3.82814596309817   -3.38332699986886  -11.93894322380686
H           4.44664811462627   -2.96014269106377  -14.28319042101031
H           5.83282671402551   -1.01418568774074  -14.87474330398000
H           6.62229679330559    0.53320145866491  -13.11777302677055
