97
 SCF done       -182.405553686337          0.000777105466
C           5.49835608359162   -2.33533936026523    1.20551607908203
C           4.81680544444807   -3.20156444563642    0.19400928793516
O           3.91641563758387   -3.97792063041142    0.41999730353244
C           5.44567393692640   -2.84946089460416   -1.08806778927813
C           6.52105663275878   -1.98813849724249   -0.86123645876824
C           6.68004569149618   -1.77833512858767    0.57394065363778
C           7.83783135569304   -1.40812250165064    1.20724590301696
C           8.01317984872901   -1.45078156907361    2.60408205008460
N           8.22409556442357   -1.50286224203602    3.73166935823061
C           8.99844091355975   -0.97410132035063    0.53555814828981
N           9.96507495344477   -0.59979177898174    0.04240901676523
C           7.26762789471164   -1.47905783893473   -1.93070945221966
C           6.92984753930074   -1.85350482103003   -3.20467108440947
C           5.86099396927555   -2.73862074319839   -3.46921522563955
C           5.08679500876088   -3.25423333526182   -2.38953263513443
C           4.01657509105594   -4.13045884947703   -2.65931334438479
C           3.72800909326801   -4.48678308825766   -3.94827553032083
C           4.48947849926627   -3.98507580821533   -5.01546313352761
C           5.53159336121475   -3.12966325806355   -4.78267487628144
C           4.92417042802544   -2.11360315992597    2.41084669721240
C           5.22218162306801   -1.06347329337652    3.32235880477119
C           5.03646957700865   -1.11733778390973    4.77523390420239
N           5.35334953692437   -0.01927415994368    5.39742635292128
C           5.74536463603075    0.85346287022663    4.42725065672603
C           5.68600802389756    0.21366404551984    3.09985470233410
C           5.98400446755737    1.18206068014533    2.07573636684404
S           5.84180214797494    0.99328869536013    0.44596735376472
C           6.30194892942735    2.38054622261238    2.80196127373690
C           6.13175091841886    2.15466620584658    4.24468125203719
N           6.39436816121452    3.29988456634582    4.93919354857143
C           6.65192827135945    4.20773929984581    4.04777906552836
C           6.58677134906145    3.72058412721366    2.65852619261014
C           6.89566193758389    4.41153910113678    1.45578332686025
O           7.52857851991645    3.66095070417971    0.49874493538089
C           7.74265346187899    4.49903115627691   -0.51219113653593
C           8.25372752034137    4.79716225580171   -1.89090329704325
C           7.70809945639684    6.24449295597158   -1.64265197298826
C           7.26601755554709    5.75205377323824   -0.27767806097305
C           6.67605901494093    5.74604586546273    1.00819315715110
C           5.89165512520027    6.79338538352145    1.57721085971304
C           5.11175557479670    6.67814489691752    2.67461089962066
C           4.22384238339335    7.66314244115079    3.17927619312120
C           3.67880177009767    8.86719841328515    2.52810089036156
N           2.72364699995341    9.44612231537664    3.18849456760162
C           2.55130829980790    8.70315889707980    4.32690604967789
C           3.53664837073960    7.61254901396115    4.36805303309799
C           3.37596122740488    6.83237561561174    5.56148646753581
S           4.44042133213174    5.73124626622373    6.17096708100666
C           2.14929351268175    7.32660806301834    6.12978926007393
C           1.70669937035040    8.53383673026396    5.38913895919681
N           0.55798171760286    9.02684056399346    5.93098460821078
C           0.24533290296809    8.21645960036920    6.89501155200565
C           1.16908290093253    7.08262653446877    7.06306642430720
C           0.99938290317593    6.05499786493530    8.02867270769761
C           1.50726646778521    4.79842727102830    8.04679370327799
C           1.53784519578631    4.04854225881123    9.34857157204707
O           0.87491716980883    4.31314026068271   10.32514260917501
C           2.56379392251650    3.01500030129559    9.16331507360733
C           2.98660890160745    3.01265173294977    7.83060071698414
C           2.21378710610080    3.99075465647210    7.07639981304666
C           2.03164923609471    3.98338546695005    5.71701843702131
C           2.71179313469717    3.13695070576269    4.81894038726555
N           3.24179116791246    2.51311108709855    4.01262146900135
C           1.12923089845743    4.83547796986142    5.05133138785872
N           0.40139165087927    5.50356989830838    4.46591174504084
C           4.00437706531310    2.15699656695662    7.40061442035484
C           4.56781225892650    1.29737429677202    8.30782803180338
C           4.14892936548881    1.25393048334163    9.65575670390770
C           3.12493173186534    2.13689556385813   10.11139429708671
C           2.72321037453005    2.09792405362446   11.46191742917969
C           3.30852999092737    1.21519551453029   12.32770983813670
C           4.31403245660847    0.34074433910434   11.88489076007294
C           4.72549345905792    0.35896054770681   10.58014955183562
H           8.07995857436528   -0.79284884578299   -1.75540166944990
H           7.49123186197444   -1.46698036401234   -4.04322992520112
H           3.43759158492415   -4.50965690111937   -1.83211356327444
H           2.90871917161421   -5.15928017431877   -4.15410158498105
H           4.24475718341878   -4.28015453034897   -6.02514065521099
H           6.11920143273001   -2.74233215429477   -5.60258133066217
H           4.10308785261970   -2.77180010971379    2.67779731758400
H           4.69890288171480   -1.98227194352221    5.31911904791349
H           6.96060876794825    5.19343734868885    4.34859262128328
H           7.75955722643590    4.24767839188171   -2.68931326724885
H           9.33258620714490    4.72202631300072   -2.00930647775934
H           6.89727598652411    6.54062075200931   -2.30363967860702
H           8.47107394285671    7.01891220451372   -1.62141215333694
H           5.90261065603204    7.72186559857480    1.02121811642394
H           5.10244031773185    5.74774351526957    3.22652838215852
H           4.00069971007362    9.26344304417830    1.58090897476540
H          -0.63306908080804    8.38278407519612    7.49411192823502
H           0.42395970982248    6.33009581593042    8.90888983144418
H           4.36519237222876    2.18579850439720    6.38791693297596
H           5.35157696077082    0.63260974364927    7.97770044903221
H           1.95076326278966    2.77467184797370   11.79200209425555
H           3.00016656348249    1.18570708790392   13.36213064511133
H           4.76202593480881   -0.34752585682844   12.58636236889196
H           5.49924292753216   -0.31137693778851   10.23582271880973
