136
 SCF done       -221.206965087081          0.000569048639
C           5.58442854294085    1.52969879652049    3.57023016022327
C           4.80384495583224    2.79942127754646    3.55325766187650
O           3.70285409444982    2.95269226065733    3.07101880429214
C           5.63386312829598    3.77162264928876    4.28818229191256
C           6.85963742965551    3.18778154387232    4.61290864061449
C           6.92351037923301    1.84864333767945    4.04037468970609
C           8.06105284890019    1.12695538922197    3.81117984587930
C           8.12279325323764   -0.00902511914647    2.97512465879774
N           8.27083835728461   -0.87480365891630    2.23682551128235
C           9.33916029742626    1.48750796208480    4.28587846962832
N          10.39808433340799    1.71575025983807    4.66564126832502
C           7.81494260969380    3.89900455027834    5.35227959829726
C           7.52752533911501    5.18122848114532    5.73892294378140
C           6.30601810375126    5.80896488081146    5.40823245724314
C           5.32286660879652    5.09300344104469    4.66534134096036
C           4.10426413448114    5.72277055560118    4.34027406411898
C           3.87114153714686    7.01219088023340    4.73204224808973
C           4.83690059397027    7.72264258897661    5.46272749091480
C           6.02677425149330    7.13524891958352    5.79494563017903
C           4.97510063136418    0.35078999139651    3.31880145289619
C           5.48851946306128   -0.98819720878912    3.51119464205394
C           5.26671154067048   -1.89654291856199    2.49047110625478
C           5.87842316124717   -3.15252217305255    2.49587941785666
C           6.67341289060150   -3.49659166512005    3.57728456989743
C           6.84029847951697   -2.65497511109480    4.68129892559816
C           6.22729047906802   -1.37818615429122    4.66101272574052
C           6.32738428235645   -0.54102318903579    5.80532325405812
C           7.07740327118862   -0.89908126206947    6.87389490708288
C           7.77362768805465   -2.13784324212401    6.90395524296124
C           7.63725975886215   -3.04004774796505    5.82312444054782
C           8.28811805681391   -4.28076774955532    5.91965474516644
C           9.05140893912544   -4.60153136479458    7.01542732442712
C           9.19625412000142   -3.69927217946196    8.07007294888318
C           8.56127832588956   -2.48623700485747    8.01321700580273
C           5.74000159835133   -4.08129881795619    1.36900950088969
C           5.74668056653552   -5.43255162648429    1.58768945106037
C           5.73525584247241   -6.33377002492396    0.49782142184275
C           5.84670214016641   -7.71280946929785    0.44535134594193
C           5.99172229408427   -8.70726442381844    1.55007124071348
C           7.45002886310246   -8.79873670369375    2.04832753732540
N           7.90268780579416   -7.53208369889988    2.59921780994158
C           5.05368184147862   -8.45884526898434    2.74187959032171
N           4.84106823304543   -9.71233836832783    3.45028341985810
C           5.88156141548249   -8.07073006095985   -0.95587098023503
C           6.08224522930053   -9.25316471956733   -1.56407450760705
C           6.17857094626513   -9.36408103450943   -3.04689785613005
C           5.87396114252288   -8.09653004922162   -3.78447846424413
C           5.69003330942836   -6.91792869637341   -3.16073134661284
C           5.72883110204781   -6.84224472677208   -1.74883622608539
C           5.65856623528527   -5.79292065691714   -0.85499310472502
C           5.59595943179548   -4.39261579057269   -1.04218675693732
C           5.64931604652595   -3.56888203098032    0.03527504014321
C           5.32609177259778  -10.50406797323905   -3.54373726103836
C           5.82034867452506  -11.54683304942376   -4.20060989163094
C           5.06628999156865  -12.72233746797696   -4.63931985095048
C           5.62170766156600  -13.95240721247108   -4.36195894379216
C           4.93048775051278  -15.13931066316936   -4.63570819200914
C           3.69392470201355  -15.06823490758151   -5.25849603656955
C           3.11810803572960  -13.84579671145386   -5.61213853892983
C           3.81945100631633  -12.64898797827714   -5.31103693043720
C           3.28856135120241  -11.40683183532881   -5.75458935642366
C           2.10217444332016  -11.34041355321251   -6.40278470625943
C           1.32798478875179  -12.50718244230284   -6.65093777170674
C           1.83026629478861  -13.77130455954750   -6.26400519789918
C           1.03523464603838  -14.89838669395675   -6.52551460091973
C          -0.18636906088432  -14.78477520271943   -7.14310513080363
C          -0.67035543298048  -13.53549645191563   -7.53177473418870
C           0.07933379305139  -12.41446924727168   -7.28656011689642
C           5.53075555932485  -16.40455715897599   -4.28356944256841
C           4.91337759543205  -17.53437860434749   -3.87907788763112
C           5.64682179349203  -18.83432728197210   -3.89581972886806
O           6.84678380460214  -18.97137290688400   -3.99042505598910
C           4.59921893362480  -19.86663098773292   -3.83069512372623
C           3.35535319718793  -19.25882822361876   -3.64475046284631
C           3.53698914819913  -17.81900862360000   -3.50930289119010
C           2.65912705653029  -16.95106188688960   -2.91702730563145
C           2.98788997572546  -15.62905500671140   -2.54751995107925
N           3.21414196582646  -14.57498337700862   -2.15348746283330
C           1.35036581301193  -17.29596024836185   -2.52301488037132
N           0.26759544896729  -17.51729644282083   -2.21191298530165
C           2.18760869626048  -20.03205862385617   -3.58155510170582
C           2.29161919781889  -21.39319520340415   -3.69478214135743
C           3.53612708063108  -22.04026225836948   -3.86430569219599
C           4.72964546908565  -21.26523858066989   -3.93865417580637
C           5.96921778275856  -21.91405964252126   -4.11006179261797
C           6.02422607006599  -23.27772295564175   -4.20007622960633
C           4.85173168149405  -24.04630315460762   -4.12600309918059
C           3.63484322393989  -23.44262431616481   -3.96300568012699
H           8.75343193615235    3.44275977957498    5.62194114823186
H           8.25084704347251    5.74199969677067    6.31331667488999
H           3.36974552894740    5.16716213870126    3.77897792076355
H           2.93854595315562    7.49484989613067    4.48057929249767
H           4.63187875203968    8.74001797360723    5.76168533861276
H           6.77183570048778    7.67975737419977    6.35701681633194
H           3.97528552607321    0.42780664842359    2.90130048789872
H           4.65460323019525   -1.59880307794134    1.65203413852689
H           7.18916161321537   -4.44163963238808    3.54488047195521
H           5.77218355573300    0.38543472933915    5.82733959487170
H           7.14895320091696   -0.25031632248551    7.73551288492629
H           8.19834259882185   -5.00582313240969    5.12670205146619
H           9.54478021170939   -5.56120811665270    7.06258657653457
H           9.80146495434064   -3.96166475619666    8.92511167551566
H           8.65482579953497   -1.77832053624620    8.82451800715389
H           5.78293147962325   -5.82407155564519    2.59027138337413
H           5.74140099637626   -9.69468324938947    1.14584623903862
H           8.08129258144947   -9.15665407890909    1.21635582985619
H           7.47577889597261   -9.54126828603663    2.84932821347834
H           7.97103506299366   -6.83844116181302    1.86064549975724
H           8.82442103260938   -7.64283683367904    3.00743887167988
H           4.11919891403255   -7.99804646936445    2.38053500913810
H           5.53665628698458   -7.77252956272457    3.43835337821374
H           4.29967908025473  -10.35385025777535    2.87906967267097
H           4.32259640253094   -9.54994842146705    4.30628016486688
H           6.21304273756986  -10.17313878516035   -1.00979446887248
H           7.22715408275483   -9.62608053814885   -3.27062414949373
H           5.84747823480025   -8.17367579575937   -4.86123672579576
H           5.50872813003526   -6.01692850993490   -3.72936606400794
H           5.53735643776646   -3.99274143498395   -2.04420824159218
H           5.66186125717882   -2.49872409578554   -0.10475473843231
H           4.27361550815437  -10.43261183651911   -3.31037090856019
H           6.89097187180810  -11.61058303405691   -4.36298232777958
H           6.58006865934624  -14.00787663954907   -3.86582050794345
H           3.19733151912721  -15.99222877355523   -5.50957525916857
H           3.86595436991493  -10.51090684889829   -5.58943496729348
H           1.71676322151143  -10.39104970543945   -6.74650420905184
H           1.36958986671281  -15.88197391829925   -6.23455542182350
H          -0.77873756803514  -15.66892912807110   -7.32719252647105
H          -1.63103184521274  -13.45799497224094   -8.01860778017214
H          -0.28306911292857  -11.43824623513655   -7.57559190656495
H           6.60824220306645  -16.47594207896759   -4.39585717744049
H           1.22382561039268  -19.56554282022326   -3.45677982520478
H           1.40071692652736  -22.00312101738356   -3.65238779650690
H           6.86319777090689  -21.31325096818166   -4.16572984217341
H           6.97429868440312  -23.77436158457839   -4.32905646087241
H           4.91839689830929  -25.12174410389954   -4.19925368404469
H           2.73118234856330  -24.03213237614119   -3.90533559824752
