136
 SCF done       -227.195565683600          0.000450817291
C           7.79273664984968   -9.08019962511554   -8.03003357254127
C           6.93061977771155   -9.99431324873121   -8.82471053666110
O           5.75038606085010  -10.20598466413339   -8.63202587629895
C           7.82852868003861  -10.60856845136937   -9.81790838176183
C           9.09370353919535  -10.03088237228480   -9.71749775570831
C           9.06382928793417   -8.97893125669790   -8.70347542334981
C           9.97623534592521   -7.96147656213203   -8.58617418946843
C           9.77185935037074   -6.80702592323923   -7.80785515198640
N           9.63438527237322   -5.81612522621756   -7.24310789777603
C          11.18191157171768   -7.88390064341272   -9.31130519516869
N          12.18425856111850   -7.75661539052055   -9.85677398036396
C          10.14744882397368  -10.47384585813521  -10.52427388437205
C           9.90907182877920  -11.48354152085270  -11.42023420733337
C           8.63570248028367  -12.07700877618394  -11.56165856321766
C           7.55694926471484  -11.63642914954197  -10.74149988562628
C           6.28838768654989  -12.23537608445781  -10.88172994547503
C           6.09526726999598  -13.23030975534587  -11.79963349800274
C           7.15434291860013  -13.66850406343393  -12.61089405715152
C           8.39565398615123  -13.10620986575840  -12.49508345689464
C           7.31288469848230   -8.57058626818101   -6.85702352567356
C           8.00611485971928   -7.97945639913576   -5.78338851631947
S           7.17513576334894   -6.78426106835421   -4.83464423873958
C           8.58399088547784   -6.36901275324305   -3.92783305324243
C           9.68366698885424   -7.14621805227035   -4.34324074991278
C           9.33117805191142   -8.11587892406767   -5.33335959198850
C          10.29760243693665   -9.07387068231626   -5.73510317068896
C           9.98966415169506  -10.35781687352378   -6.41888425559429
O          10.68847600117905  -10.80506970357994   -7.29974757849844
C           8.85347917552183  -11.15788354660481   -5.82562684517846
C          11.60840596316651   -8.88119055881938   -5.35393310695135
C          11.98077976152142   -7.82011359364622   -4.51922862054487
C          11.03379712713125   -6.99145708259457   -3.97980860476863
C           8.44909351126754   -5.36596275337527   -2.93617856298028
C           9.25208514225281   -5.16961313641505   -1.86203666502884
C           9.05039619494414   -4.18001031133375   -0.84141412719496
C           9.75469866910032   -4.28982458616842    0.34079352890510
C           9.52491475112934   -3.38917712145264    1.39676267355705
C          10.05518979728159   -3.32468995837675    2.67847461077379
C          11.08642783619673   -4.22750776904170    3.26659342164937
C          12.34270713778935   -3.44365707095444    3.69320965111283
N          13.48302761043880   -4.34299828949039    3.71203636539066
C          10.49968488714890   -5.04862389818902    4.42867555019649
N          11.40609805429138   -6.11960882000461    4.81797537482079
C           9.40320914632662   -2.21920030050248    3.34025686656651
C           9.49878782118634   -1.74636781979924    4.59609197675427
C           8.64732978096526   -0.61235499723046    5.07161230683982
C           7.81481189976846    0.03237158739547    4.01331022110612
C           7.72725986528358   -0.45566276813761    2.76277753689553
C           8.47292516857851   -1.59890471469966    2.38430808150420
C           8.55298022183812   -2.31815177715696    1.21163178995461
C           7.88626900111701   -2.19347675985532   -0.03036780347904
C           8.12441988680758   -3.09469474370210   -1.01338871091984
C           9.53396621806863    0.35736734101582    5.80529708996347
C           9.98393978176188    0.10492664894993    7.03675376592869
C          10.89065033227320    0.93424965957967    7.77089712752870
S          10.88965823441862    2.64111971252302    7.53991871166614
C          11.99540999781300    2.91398544040887    8.84656126588600
C          12.38887215942000    1.68880182200739    9.41629204747094
C          11.78844865731723    0.55814860341287    8.77705640694916
C          12.16257050740961   -0.75512132113692    9.18431924940058
C          11.80206350454285   -1.96759448982991    8.40595677137693
O          11.76221305314480   -1.97623280155860    7.19460115321344
C          11.53824046366333   -3.21830498553420    9.21046111154668
C          13.01825161251311   -0.88298574432313   10.25703724470373
C          13.56147094215152    0.23258457225940   10.91091288779344
C          13.27697347045259    1.50195285638662   10.48863970243145
C          12.41184518771372    4.20013021875069    9.22346086447832
C          12.07895099565417    5.35413301024653    8.57524154254459
C          12.47439423309653    6.65242060837800    8.95469399659024
C          13.45855628215278    7.08095544965136    9.80327750706327
C          13.36048836220236    8.46189096429046   10.35098651282122
O          12.62205766733679    9.33640604099077    9.94976522230160
C          14.29942432902290    8.50119333279631   11.48756356610880
C          15.00440368124326    7.29984242853333   11.54185556587397
C          14.60927969542255    6.45925776363508   10.41125483919376
C          15.35815469784029    5.42486429190090    9.90539874102152
C          15.09645346151375    4.79935900285385    8.67077365584783
N          14.94000838564831    4.27039312600221    7.66380778245703
C          16.50537925611774    4.89223911506467   10.52463850250846
N          17.41957085633858    4.38316128024649   10.99856517580813
C          15.93715368007287    7.06724311022260   12.56044070779547
C          16.14864345641165    8.04636046776605   13.49631842151824
C          15.46498117617602    9.28090190207411   13.45819771010393
C          14.50927134774036    9.52607636723506   12.42952019261641
C          13.82697145857472   10.75947932222604   12.39521975530177
C          14.08375435726327   11.71299345346683   13.34100442336156
C          15.02449676117189   11.47692569987357   14.35670878611720
C          15.69931763905435   10.28879843415678   14.41575955485810
H          11.13195164921944  -10.04841694518804  -10.42498911687235
H          10.71377892995930  -11.84744142309144  -12.04288146091166
H           5.48283592853473  -11.89038418531992  -10.25273041681364
H           5.12288788845757  -13.68783244719577  -11.90730121461691
H           6.97963315517323  -14.45622157418750  -13.32913695364716
H           9.21202242339962  -13.44151344003356  -13.11866189939509
H           6.23419548008276   -8.64349713503794   -6.74391488256661
H           8.28777611135307  -11.64658128435755   -6.61620701161832
H           8.19524705033671  -10.55870701019665   -5.20606564307929
H           9.30007501759535  -11.94099361096283   -5.21206098453280
H          12.35254088648845   -9.58519985861130   -5.69618322494811
H          13.02316927785394   -7.68314308226823   -4.27677745732943
H          11.32313162887837   -6.19702883552639   -3.31260964581081
H           7.55215802048090   -4.76875489638746   -3.03414814285970
H          10.07599594659020   -5.84792697523212   -1.68945809849552
H          10.46810248722246   -5.09226405636776    0.46727184068478
H          11.41206159484020   -4.93149814612977    2.49378543357630
H          12.15946731834643   -2.95013829571013    4.65903517449190
H          12.54277957151024   -2.66396626018704    2.95025211660165
H          13.29536542459615   -5.08860512093956    4.37699503262743
H          14.31423168282775   -3.84628258132669    4.01386715331482
H           9.50517494708415   -5.41919229571648    4.12184605947094
H          10.36069301030577   -4.40566899973240    5.30112220685595
H          11.55270880808594   -6.75035092436937    4.03582079748206
H          11.00638894230278   -6.65889188304272    5.57899031832850
H          10.18820192967421   -2.14841160603307    5.32300671125599
H           7.95986903963563   -1.04982596817308    5.81643198318827
H           7.26067147176738    0.90839742861517    4.31512763965242
H           7.09475146828234    0.02150477174951    2.02821275101521
H           7.19000608370199   -1.38125338358458   -0.18006351441807
H           7.62443116950146   -2.99154560371735   -1.96332008111985
H           9.86583388237714    1.22645516983977    5.25660555318223
H           9.66184454805623   -0.79615445318729    7.54242453773737
H          11.04006759512178   -2.99186570078478   10.14902365509160
H          12.48632477879592   -3.70923187175292    9.42495938608758
H          10.93865316909773   -3.90652557464674    8.61898061872302
H          13.33068595958416   -1.86355728853715   10.58032035042081
H          14.23901271405327    0.07598413852103   11.73609534699583
H          13.73663857565550    2.35249962500066   10.96690820245936
H          13.01221736010824    4.25517700604058   10.12087045011740
H          11.40399055607854    5.28487596771238    7.73167114706729
H          11.85762246832473    7.46073172829091    8.57135503344265
H          16.47247501765589    6.13346604602408   12.61871432554312
H          16.86009407363406    7.88014782427465   14.29243290823161
H          13.10676621842037   10.92853767250633   11.61033404352151
H          13.56302300481145   12.65852000959044   13.31300660308696
H          15.21142102302923   12.24433495338269   15.09336480048716
H          16.42414820421185   10.10521762310788   15.19583323676001
