90
 SCF done       -167.467521921702          0.000404135243
C           6.11345162385226   11.26273883361319   -0.20769607375903
S           6.68696431574372   12.21418835348544    1.09129944139721
C           7.01630490057579   10.79633644879509    2.04481401271519
C           7.58341602047128   10.84476438988739    3.40594327803050
O           7.79621605931677    9.84884583428576    4.04009863806695
O           7.85297431735767   12.06163682679006    3.90280244424073
C           6.68224822611981    9.65752822528069    1.36733529153262
C           6.16011829060880    9.92360580405597    0.07889384023707
O           5.83719534079888    8.90103655981790   -0.75225566869589
C           4.95580388619280    9.08768368197841   -1.75393747561960
C           3.81961731183869   10.00344311471397   -1.79302261269617
N           3.11264351047519    9.90969917027969   -2.88682573371136
C           3.71732554178867    8.94576685013558   -3.63468231337402
C           4.88407455352818    8.39353291827113   -2.93338566382329
C           5.47927644139347    7.33866823407539   -3.71713007293224
S           6.69617280649077    6.33637633068557   -3.24742608898554
C           4.70328437041477    7.31092317899331   -4.92924730432392
C           3.60719211985276    8.28832370823583   -4.83477359004722
N           2.81083063343356    8.23086987338444   -5.94002756297066
C           3.30786953763343    7.27665520354779   -6.67362522923627
C           4.50754675608769    6.64410355150958   -6.12084249542108
C           5.26345546422575    5.61037414192851   -6.77094104909326
C           6.63582322762368    5.53978521211057   -6.61203508567674
C           7.36330176286512    4.53112407158600   -7.26612444484281
C           8.72535135551236    4.23331948716411   -7.28219682094702
C           9.89660648172636    4.91066157192280   -6.66079491182918
C          10.51522703398558    5.87812377631658   -7.69844941044352
N          11.88676864788603    6.18108365992681   -7.33351495459903
C           9.62223924138884    5.59731519451274   -5.30601013582845
N           9.12452761926480    6.95858440843406   -5.44177933983184
C           8.88537420257978    3.07815845784409   -8.13965444013853
C           9.98556943421628    2.38200453173216   -8.48312474813028
C           9.91428564679508    1.24097705643823   -9.44009261976930
C           8.53628052208064    0.90434653168796   -9.90558262526091
C           7.44169710115019    1.58922775745121   -9.52352991072577
C           7.56493404774656    2.69088590275079   -8.64409043119222
C           6.64925341005318    3.57423727815563   -8.10351805737843
C           5.24898927293732    3.67921563789675   -8.25207784194800
C           4.58141212420584    4.67192983781639   -7.60914375942008
C          10.83290095178411    1.60658268757319  -10.58727543058175
C          10.40754597793271    2.26133946018561  -11.67209453570410
C          11.24111162862264    2.65503365638678  -12.76571531160978
C          12.65889313473348    2.35322804231269  -12.98280107134524
N          13.15139027773621    2.84320251232938  -14.08535457192133
C          12.12005140633035    3.50941434571821  -14.68065963824272
C          10.90047258773374    3.40174769883584  -13.86829144294704
C           9.80592936667555    4.08012555387581  -14.51930452847132
S           8.23557055566946    4.08963187228307  -14.03170812069030
C          10.39633536293762    4.64795404439322  -15.70255503756498
C          11.81309326189598    4.24219792059878  -15.79832535764527
N          12.37171548491253    4.70050528760909  -16.95229019673967
C          11.42452437379059    5.35124832874987  -17.56313216289288
C          10.15482442928506    5.39348436983929  -16.83609018344956
C           9.00500657158857    6.10768326590845  -17.26456489115438
S           8.70090574988617    6.39470175848537  -18.94964728194992
C           7.22231947135690    7.23108250607779  -18.59305606721211
C           6.33340387336926    7.79668899025690  -19.62111999337677
O           5.32145701931152    8.37633346619547  -19.33202468760956
O           6.70755851236360    7.63609373678768  -20.89953616693207
C           7.00333832577938    7.30315668642002  -17.24069457221209
C           8.01025677944142    6.68298365121081  -16.48013336383215
O           8.09293092885464    6.69018120141671  -15.14077963077523
H           5.79261653439429   11.74221502851394   -1.11165178311470
H           7.63717100278906   12.78263846627483    3.29590649166070
H           6.80560686032230    8.66980171088556    1.77041062470559
H           3.52942895374806   10.68298295197370   -1.01107024211214
H           2.86489445650519    7.04059027706485   -7.62572976143573
H           7.15967545950351    6.28290141068664   -6.03343490436136
H          10.65591776262015    4.14405499078991   -6.47315155468585
H           9.85963314305537    6.75647101207426   -7.78473542844274
H          10.53897435457214    5.37859711594108   -8.67155067600376
H          11.92128229362915    6.73950680796759   -6.48800764872832
H          12.34637139273647    6.70293050422124   -8.07048717951329
H          10.55048022120981    5.55283746708143   -4.71570083262938
H           8.86689991496936    5.01677930312857   -4.77168982244397
H           9.88126027302342    7.60759724728423   -5.62794779695239
H           8.68633213087263    7.24447855840087   -4.57232317050943
H          10.96859117020909    2.64594600611663   -8.11793499569616
H          10.34375792259067    0.35374097813154   -8.95172319059524
H           8.46369310203664    0.07333638806104  -10.59059581935648
H           6.46281671753423    1.31087832867122   -9.88474812374633
H           4.72354309392997    2.96749294963230   -8.87131527550359
H           3.50881563537307    4.75270678017910   -7.70113392157621
H          11.87531298405935    1.35353590830188  -10.46132838732251
H           9.36274595042311    2.53032147068822  -11.76397705913752
H          13.28355099489841    1.76945866701359  -12.33001105055482
H          11.59850020394298    5.82162190381483  -18.51582475660952
H           7.53702138569781    7.14886153829802  -20.99762743205771
H           6.14080372244387    7.79472607800536  -16.82606818168467
H           7.27908317069125    7.03431749987482  -14.75264235028902
