114
 SCF done       -193.128938900412          0.000779186061
C          -1.85475021308849    1.52492661096612  -11.88664725053516
S          -0.47770852165022    0.57649889193383  -11.61383648455473
C          -1.05921150560400    0.01271780136274  -10.07262001041796
C          -2.28782662604601    0.61871642771533   -9.76804523176557
C          -2.75011319754275    1.47021094107799  -10.83036363953289
C          -3.98674600836569    2.13528723640069  -10.72300310109687
C          -4.73599721340147    1.98588074465663   -9.58012514150142
C          -6.04656463280754    2.62613848799907   -9.45164773764086
O          -6.80099910565816    2.47633738061477   -8.52120989235481
C          -4.23576744158204    1.21374831349322   -8.49733400650402
C          -3.04642038250210    0.55543576195474   -8.57781913586155
C          -0.29382487487887   -0.95620953126452   -9.38239090397372
C          -0.75732668101040   -1.77351503491211   -8.39961065820561
C           0.06022253017140   -2.70372917153837   -7.71521866738141
N           1.34417737413609   -2.89008702099287   -8.00508328703573
C           1.78427460389316   -3.81691841343282   -7.13652276710256
C           0.71853094491673   -4.24994700353970   -6.21988299293551
C           1.23001979240840   -5.24670756775233   -5.26925154963418
O           0.63820670736555   -5.80471370146529   -4.36701613066262
C           2.63832771802448   -5.39094215236826   -5.67834683691881
C           2.93580788760358   -4.50238698524216   -6.81669960008714
N           4.23011461478812   -4.62423905387126   -7.19540879942523
C           4.74272785080495   -5.51514535718808   -6.37763398696502
C           3.80532917923028   -6.03478557699249   -5.40787913930142
C          -0.40249355460278   -3.54764351039868   -6.58421462733695
C          -1.71735800239446   -3.51860810174816   -6.04424201188259
C          -2.11885173655118   -4.20321178241148   -4.95022310485546
C          -3.43608044176216   -4.09281980374379   -4.37578731487919
C          -4.51269530857929   -3.59960737988355   -5.08301581783795
C          -5.75144760688910   -3.40790257507249   -4.44806207418621
C          -6.94395206149396   -2.87633908321374   -4.92858789184920
C          -7.21202739895935   -2.43967579249506   -6.32839194669906
C          -8.40862152283984   -3.19553807341273   -6.93894422219917
N          -8.27614804914972   -3.20616133667659   -8.38202404803197
C          -7.39135827264739   -0.91157134781902   -6.41524701217149
N          -7.42814911780981   -0.47857157676122   -7.80282733865969
C          -7.86052162902733   -2.84553341318696   -3.81560586021186
C          -9.12065918666482   -2.38439079233656   -3.70042857398935
C          -9.88165728863066   -2.49405522272446   -2.42825581625913
C          -9.09344760081540   -3.01405566866714   -1.26497523228201
C          -7.83121388519130   -3.47007200735535   -1.39402891533165
C          -7.17066389774087   -3.40971445838107   -2.64120028056789
C          -5.89015511745654   -3.74625553924639   -3.04000889189781
C          -4.79059888233411   -4.31239235203789   -2.35360713094157
C          -3.61212537102524   -4.48227745781505   -3.00631965927825
C         -11.01030811579667   -3.48459960738997   -2.58312663416161
C         -10.87992596063017   -4.66009192908050   -3.21610119189641
C         -11.96231845881154   -5.58739614285776   -3.30389981474961
N         -13.17872816217174   -5.28296856946892   -2.87784369889531
C         -13.94036695134266   -6.36816915285632   -3.12620877862076
C         -13.15912230280844   -7.44009977885973   -3.75106478550618
C         -14.00687063615912   -8.60928111118615   -4.00539778549404
O         -13.70036644745004   -9.67602856169854   -4.50618826398650
C         -15.32229015479899   -8.17567812151484   -3.50306685728710
C         -15.23816895300304   -6.80238855319640   -2.97406497852992
N         -16.44147547151776   -6.39500504400098   -2.50357653415440
C         -17.24888030421136   -7.41040894326581   -2.70565419097450
C         -16.61567901341648   -8.55440453653184   -3.32375070911295
C         -11.87416733543622   -6.95288834490080   -3.87033115261190
C         -10.70085149321278   -7.57098882124407   -4.36372362126977
C         -10.70175403729524   -8.84824902248638   -4.83495048924174
C          -9.57794149466613   -9.54870195475043   -5.30282821669397
S          -7.98232728972775   -8.87270136741199   -5.33994398452495
C          -7.26712284563901  -10.33221493743166   -5.93311633305719
C          -8.24024443368329  -11.31254034168412   -6.14958202834545
C          -9.55297960081298  -10.87398384349230   -5.77953087175378
C         -10.64939598805766  -11.73777760569626   -5.91450993737331
C         -10.45605736604404  -12.99991414100430   -6.43153407553391
C         -11.58822810751316  -13.91985917339752   -6.57959762584251
O         -11.52123015522102  -15.03783923055928   -7.02637280081293
C          -9.16457958206166  -13.41375877301183   -6.84845930820682
C          -8.08233108966477  -12.59830718172972   -6.71837052858925
C          -5.84066421010633  -10.35616542483966   -6.09634975374477
C          -5.05650526692119  -11.43313858352149   -6.04966099708306
H          -1.96127457443978    2.07797760559293  -12.79894758466403
H          -4.33255356307121    2.75352960032385  -11.53838076717777
H          -6.31881037647875    3.27263225399279  -10.30734671315371
H          -4.82612851741979    1.18292756078518   -7.59395211143859
H          -2.66949025759200    0.01927390416245   -7.72283806657105
H           0.73538975140672   -1.08617636383749   -9.69022385623314
H          -1.79909608183310   -1.74584006457296   -8.12496307380087
H           5.77721429244993   -5.79909756597822   -6.46514289845554
H           4.02554606703978   -6.76682311723224   -4.65602493650819
H          -2.42063175514528   -2.86304324329538   -6.53893512402678
H          -1.40428760952530   -4.82579693499567   -4.42805869421977
H          -4.41894571279192   -3.36044839563859   -6.13144499596867
H          -6.34644832729721   -2.70405554691775   -6.94481201286885
H          -9.34914248997053   -2.74027931896347   -6.58857550360239
H          -8.39019772113123   -4.23489295019615   -6.59072374924631
H          -8.25529264472168   -2.24322918292766   -8.70979730800435
H          -9.06634918947849   -3.67729177362673   -8.80876294994020
H          -6.58070930038078   -0.43851042076802   -5.83270216404345
H          -8.33809338039017   -0.62119697311194   -5.95316983002851
H          -6.53598665562465   -0.67198406419655   -8.24905742537202
H          -7.58182396674239    0.52449120312260   -7.85633558686429
H          -9.65509775586461   -1.95331875459798   -4.53387467775155
H         -10.31405169722158   -1.51609532612995   -2.18347324372368
H          -9.61151536398559   -3.05101233425195   -0.31969346342992
H          -7.29891907387463   -3.85920524365993   -0.53826954419420
H          -4.89829625885011   -4.59873564151605   -1.31780994250760
H          -2.75973986481719   -4.90428044112624   -2.49476820339883
H         -11.95194828141223   -3.25675623128219   -2.10568720050564
H          -9.94180497290679   -4.93379152296046   -3.67865280644567
H         -18.28359428762792   -7.34646683722775   -2.41657423278471
H         -17.09995317353415   -9.47890332006622   -3.56969403687468
H          -9.77575053135026   -7.00913371698368   -4.34461360968354
H         -11.63802637657866   -9.39003980584884   -4.84649310471173
H         -11.63733198969199  -11.41366080887948   -5.62291986910354
H         -12.55184109172940  -13.49636397416247   -6.23538005645377
H          -9.07367770935931  -14.39900624878347   -7.28026127822578
H          -7.11332869509054  -12.91191763324328   -7.07023990783107
H          -5.38705516763321   -9.37906615117301   -6.21326280257201
H          -5.43616745246810  -12.42056039797169   -5.85753160047081
H          -3.99128388148353  -11.34314777508483   -6.16979439634243
