138
 SCF done       -201.573608294046          0.000740325914
C          11.70360704688945    7.93188606159587    2.58371071901343
C          12.60825493050239    6.99891349740120    3.35066994466742
C          12.70109473480355    5.72858163565030    2.44479854319072
C          12.16395815402416    5.89657852332353    1.01348375913477
C          13.01070939857504    5.81721375740501   -0.00959665599457
O          10.82312755327952    5.96111405654493    0.66804588579637
C           9.88176025914479    6.90026950000090    1.23254896528398
C          10.38351505908694    7.13205898113267    2.63955714075206
C           9.74933509711286    7.60032084620669    3.90895837590538
C          10.58495590492821    7.43622846223779    4.93087341598103
C          11.95588152751770    6.79238874318337    4.76474479475367
C          12.89431122622999    7.30553924336260    5.85837163169247
C           8.49861901266492    6.25873702414401    1.16807808734195
C           8.04029934610688    6.03860143239546   -0.26992377511897
C           6.62769330754202    5.43740056352419   -0.34719537746340
C           6.59746305167988    4.04958537134748    0.17300791051619
C           6.43269133481358    3.64976754181662    1.56677132456474
N           6.45101765466262    2.35806393099163    1.76904262953435
C           6.62426898806060    1.80673144833340    0.53589802796924
C           6.74193873279329    2.86528595577667   -0.48830700790998
C           6.85222549834883    2.27305493054506   -1.80108208926067
S           6.93916590911500    3.09299337485218   -3.22447241121065
C           6.79440300458723    0.85284162763504   -1.56249468445020
C           6.65359960566801    0.60291719941216   -0.11240838883781
N           6.52448665545292   -0.73088694439557    0.13701790501557
C           6.52551426542833   -1.30148928798843   -1.03256503722927
C           6.67914751094317   -0.38419712099929   -2.16215657949461
C           6.67529868698525   -0.78348368757439   -3.54317771437195
C           5.97233174889834   -1.90974113028088   -3.92718112987051
C           5.89078120160530   -2.26069569453414   -5.28421588234847
C           5.21093487710210   -3.29095865418292   -5.93502707329601
C           4.39154691677992   -4.38140796592216   -5.35080473625063
C           5.29656634215647   -5.34012332170645   -4.51602667936281
N           4.65779841921166   -6.55766910085071   -4.09803172661366
C           3.21706236525155   -3.85652528596682   -4.50351451488526
N           2.25597591294158   -4.92392090733040   -4.26349199232514
C           5.47794101718923   -3.13570392521238   -7.34525168514524
C           5.02190833077102   -3.81579209940318   -8.41425701066736
C           5.39162126281864   -3.42805917002020   -9.80442207279290
C           6.35007682649447   -2.28730436211532   -9.89600786649238
C           6.78955767684785   -1.60954515415175   -8.81781258908004
C           6.35947864376243   -1.97514131465758   -7.52119789776182
C           6.59630900304544   -1.44747111548102   -6.26464871693681
C           7.34102162005200   -0.32584290345986   -5.83729634471730
C           7.36861714889325   -0.00166451234951   -4.51872693490359
C           5.92289889676694   -4.64583746554249  -10.51911675700716
C           5.16171362944021   -5.42612508535140  -11.29242186478146
C           5.59556099499888   -6.61425753580013  -11.96378523722383
C           4.65850450624278   -7.51409791783834  -12.63239850340806
N           5.20492445018933   -8.55805153514702  -13.18945496874260
C           6.53803508340249   -8.43019770803037  -12.94933903943575
C           6.82279026170606   -7.20835261408978  -12.17105641746738
C           8.24219885525074   -7.10012178835706  -11.94895595172661
S           9.02363747829064   -5.98752737389936  -11.01984328420517
C           8.81823090244817   -8.23308837146391  -12.64351288453554
C           7.72433557680134   -9.06012012222430  -13.20507877140523
N           8.21969940974862  -10.18164863736232  -13.78620686971798
C           9.51576129042841  -10.09914660448659  -13.63921597625638
C           9.97951942390150   -8.88627554581702  -12.96577671476990
C          11.40383644801366   -8.52298375442590  -12.71743664216543
C          11.68322637613749   -7.03367825836196  -12.97866408979147
C          11.52468292371746   -6.65552708689489  -14.46220954536754
C          12.69158727052161   -7.02697761802199  -15.33331121815787
C          13.51301272056217   -6.11355749532738  -15.84450290201691
O          12.91815846816958   -8.33045417261596  -15.65975147137817
C          12.18400292296824   -9.35457315492049  -15.02816664542127
C          12.40665254580396   -9.38976432263504  -13.49007528879298
C          13.80325221938119   -8.93614704824148  -13.17559943438460
C          14.08963901702209   -7.72272690881907  -12.73652584002571
C          13.07403191718982   -6.65874589186581  -12.44712657011561
C          13.04339064211462   -6.36979030582993  -10.94179333700271
C          12.63676004428081  -10.65725964600046  -15.69475467936714
C          12.23788610040867  -10.70614552060177  -17.16805574351033
C          12.72435945979728  -11.98394549647845  -17.83866199387874
H          12.06447806482121    8.09408544034416    1.56812154561809
H          11.59031158497393    8.90604503328378    3.06111385567660
H          13.61087847374512    7.41045748736309    3.48602151437574
H          12.20007286841308    4.87390208785452    2.90723767686813
H          13.74919888538291    5.44819556240919    2.33772765905988
H          14.06028543580326    5.63975536915381    0.13146710805056
H          12.65715026440625    5.89617188445097   -1.02218420982312
H           9.89644194911625    7.81454362866802    0.61907631705256
H          10.61759900507079    6.09852387705631    2.91012020075216
H           8.77102060107763    8.04467252938989    3.98066075552929
H          10.32666882295304    7.73809426354490    5.93447341326346
H          11.82078644732242    5.71444707174238    4.92930148028337
H          13.05645682579148    8.37537871822400    5.74515843014095
H          13.85651563552515    6.80123079296791    5.80473189460652
H          12.46987885719745    7.12468503740362    6.84356155774809
H           8.53677827469392    5.30329998642084    1.69522261873064
H           7.79607594742574    6.91442072594847    1.68775032201636
H           8.74742308273380    5.37798950196285   -0.77251895227929
H           8.03848579161105    6.99436097048636   -0.79782734493290
H           6.31148170953858    5.42738988275485   -1.39241052002010
H           5.93957916805872    6.06315903698428    0.22686506993930
H           6.29464603540626    4.32612427546246    2.39302389077616
H           6.45993974880002   -2.37342879286425   -1.10837651690600
H           5.44662189955819   -2.49102900572806   -3.18648738785554
H           3.96346836287591   -4.97361321712100   -6.16858817192945
H           5.63621693677643   -4.81196420417859   -3.62228472842949
H           6.17664117198055   -5.59476643484193   -5.11327075357091
H           4.44906841650514   -7.15281022301217   -4.89188352938567
H           3.78246918989033   -6.34630638497183   -3.62707461471592
H           2.77602298756354   -2.98576495716805   -5.01692373644062
H           3.57684375950380   -3.52153364233072   -3.52912860499674
H           1.79163953491883   -5.18441947513821   -5.12815859485132
H           1.54213410522524   -4.61742641088348   -3.61182445200801
H           4.36606325141473   -4.67105382185734   -8.31992801857546
H           4.45727553636574   -3.13522781158906  -10.31130133757159
H           6.67806939023057   -2.02902773818882  -10.89113198132075
H           7.47188516470300   -0.77989567961418   -8.92905529887697
H           7.87562137115593    0.26802402772199   -6.56313410629560
H           7.92663935554928    0.85524118377818   -4.17849648506922
H           6.96345870001831   -4.87602172835892  -10.34581662646311
H           4.11374834156950   -5.18445568616138  -11.43556400794476
H           3.59271902322462   -7.36581379518095  -12.67822731855454
H          10.13671000756382  -10.90909377303146  -13.97653169572721
H          11.58799644069438   -8.69272977557936  -11.64644209623042
H          10.94330971392675   -6.45155253823920  -12.42406214865862
H          11.40435175199567   -5.57289240394346  -14.52488337188975
H          10.60757671207863   -7.10652458294911  -14.85344858211330
H          13.37291463815520   -5.06624983476324  -15.65899486336975
H          14.33665191353903   -6.40305810501437  -16.47024534058109
H          11.10742608218205   -9.21757807225000  -15.22888261342078
H          12.29658611166251  -10.42972343369493  -13.16449487070497
H          14.58871960995120   -9.65146954346433  -13.37223277084338
H          15.11615440896511   -7.44856592584622  -12.53594128951893
H          13.39481166305334   -5.74025630231207  -12.95274917330378
H          12.74808580343060   -7.25424418454637  -10.38143812493186
H          12.33626061196111   -5.57344488008415  -10.72286223090168
H          14.02842012793548   -6.06425255420458  -10.59685997830090
H          13.72235196337423  -10.72513749590903  -15.61081928551490
H          12.19667885932228  -11.50860053464016  -15.17135896019430
H          12.66178316132098   -9.83800684329632  -17.67431828293895
H          11.14949274299958  -10.64447514537679  -17.24809565379520
H          13.80864171374531  -12.05239367087345  -17.78855264367203
H          12.42740741100751  -12.00175322048441  -18.88435396725530
H          12.30243596500130  -12.85872161003261  -17.34790591221897
