154
 SCF done       -220.316780645536          0.000902871987
C          -4.25315562049672   -2.46274163143393   -1.22860819800408
C          -4.42490839617461   -2.76768839424470    0.23969506928928
C          -3.90973527201283   -1.47994595451775    0.96171994255160
C          -3.69006705595040   -0.25564775751800    0.05686892943119
C          -4.45915858184070    0.81730718994297    0.22025132516545
O          -2.62914759547526   -0.09941579812807   -0.82233830087140
C          -2.31477573501851   -1.03739018917264   -1.87615360121402
C          -2.71292814813953   -2.38012443192940   -1.30668717269927
C          -2.30147404830138   -3.79118019610218   -1.57525336089124
C          -2.80281912856308   -4.60297818361663   -0.64824278020019
C          -3.62226433118582   -4.08673946118296    0.52858883396189
C          -4.57177040545498   -5.18681389072007    1.00653088402910
C          -0.83300148825978   -0.87491799745864   -2.21359130821826
C           0.09514047640308   -1.25673799212471   -1.06282500302115
C           1.55141233328617   -0.95658070759149   -1.41434004028051
C           2.51520583543574   -1.41545824786370   -0.37100135233633
C           2.22245280346174   -1.79760173408340    0.88968772529716
C           3.45025436385163   -2.23232033840806    1.55323515364834
C           3.52370657606915   -2.63603777346961    2.88975208390462
N           3.57299603000504   -2.97846965413673    3.98545761451693
C           4.47528830389554   -2.16930128561906    0.65838546001182
C           3.95491997132103   -1.64538227825140   -0.58439826900295
C           4.70247798972753   -1.38640128047275   -1.70622916670083
C           6.07425091391392   -1.88460592478844   -1.97895680832934
C           6.54400388327473   -1.20797950264773   -3.06985576557721
C           5.51293927946110   -0.31626608191341   -3.53718760983882
C           4.39458544149501   -0.45985603471515   -2.75305727803879
C           5.65076405721492    0.54338483677697   -4.63467663224813
N           5.77623430930238    1.24265778398718   -5.53694210372204
C           6.68206136200882   -2.99426315021041   -1.32173562868722
C           8.00470033674509   -3.27954909294540   -1.36559183539041
C           8.65593597095286   -4.39937381579942   -0.74685686604615
C          10.03661676700420   -4.48155502858330   -0.80475799334370
C          10.71432350968431   -5.55523940700481   -0.20606667450490
C          12.07298044487963   -5.85340745997739   -0.12172928454146
C          13.18807865922639   -5.05058366451752   -0.69774439029366
C          14.13069034171520   -4.51911756840556    0.40125303029848
N          14.78379583940853   -3.31767026587584   -0.07399749939900
C          13.94874504666123   -5.85162492467319   -1.77053903895078
N          14.89285344334758   -4.99765151285337   -2.47498701191258
C          12.18415955904395   -7.08219255798751    0.62729932945044
C          13.25005587560649   -7.80402731908738    1.02816429729542
C          13.09928352399162   -9.07655236186313    1.78132224479398
C          11.68758547624813   -9.43902216646738    2.12161654804310
C          10.63063524557722   -8.70459613600564    1.72934946064913
C          10.82529774186673   -7.52009635517367    0.98163865757617
C           9.94473576238895   -6.58479428322099    0.47418883599193
C           8.53620090436146   -6.48566797146677    0.51686779559181
C           7.92051528857158   -5.42984581953784   -0.07271589541994
C          13.68885804810809  -10.20830003405455    0.96487732235719
C          14.36046063506971  -11.22726826799675    1.49593101335152
C          14.90952216944793  -12.32182930148940    0.72558255911118
C          15.52527180177706  -12.23513302770643   -0.48064335018880
C          16.04439566013853  -13.54646799736007   -0.83377365105473
C          16.72044810106862  -13.83306034922242   -2.02519502133987
N          17.27971181810306  -14.05838585903333   -3.00283730863142
C          15.76634388494254  -14.42185198954225    0.17801411130324
C          15.01043232996843  -13.71881762732664    1.18189100806784
C          14.35824927670141  -14.28089535662974    2.24810818208568
C          14.52316912284201  -15.65228794237576    2.77337809430361
C          13.52117458380304  -15.87402742530906    3.66219033207817
C          12.70538090797845  -14.67414762614273    3.75336863809024
C          13.23410977436591  -13.71029283466866    2.94050558077095
C          11.56519959643013  -14.54416991741112    4.55467655497369
N          10.63038026127200  -14.43082581632108    5.21233986502928
C          15.61820118541100  -16.53916119644401    2.46427154579208
C          15.51104704253583  -17.87113427971900    2.46525421904834
C          16.65577512614240  -18.76210035922441    2.13845631574553
C          16.41607649220232  -19.74543951116776    1.00235739552369
C          15.32145523078832  -20.75467649504551    1.47439311609007
C          14.55472759241792  -20.51847508551512    2.79079539923155
C          13.22292867304573  -20.58641678564550    2.74917092229617
O          15.07041977275031  -20.42012503782968    4.06792778247528
C          16.29263343193975  -19.75563618486028    4.45011443768677
C          17.15036727419270  -19.78629798186915    3.20987562692077
C          18.62812004651370  -19.82143982051325    2.99139174337056
C          18.90488720456331  -20.10819588676481    1.72219775618424
C          17.81951526237930  -20.37849587456611    0.68537986791429
C          18.30785412742133  -19.89503767299742   -0.68256630489573
C          16.88942903182044  -20.53051031031640    5.62334222013837
C          15.95428280326064  -20.55680248705821    6.82965828902201
C          16.53844922618691  -21.37133744462085    7.97651650145377
H          -4.74769100463894   -1.53115896657255   -1.50362569596195
H          -4.63613645645002   -3.25237148107428   -1.87637856417673
H          -5.47053736412342   -2.92952855049423    0.51075694354380
H          -2.98642469654472   -1.67770345520068    1.51326414189533
H          -4.64866513109204   -1.17314387546427    1.70236187045917
H          -5.23263530542187    0.85684294920056    0.96422703430188
H          -4.30206374204724    1.70093605343676   -0.37233742302616
H          -2.90978725865868   -0.76759230256664   -2.76309845509011
H          -2.33262482753335   -2.25737019125768   -0.29014993284749
H          -1.71543690355454   -4.11034262202704   -2.42067146698521
H          -2.64277782644016   -5.67023040061525   -0.67539210551195
H          -2.91405476561692   -3.88951491216235    1.34560597582847
H          -5.29164405756439   -5.42892234129982    0.22740712564207
H          -5.11477213444402   -4.86544688368184    1.89258623136594
H          -4.01833077780027   -6.08962837530415    1.25562483870127
H          -0.61774671030478   -1.48995612036652   -3.08998487297186
H          -0.66394450352906    0.17051683245514   -2.47930123835931
H          -0.00614165381503   -2.32131853002889   -0.84287008374693
H          -0.19600748999879   -0.68613526710442   -0.17993149364801
H           1.66115007961844    0.12364734050337   -1.55782204848698
H           1.79583428983878   -1.44339853179245   -2.36312049179281
H           1.26537388005161   -1.79583878760225    1.37447712844354
H           5.51028847947687   -2.35243027221893    0.87276687287934
H           7.48972746463097   -1.33821012114343   -3.56081443333715
H           3.49575049523545    0.11500057589565   -2.84618898731414
H           6.01038144890483   -3.64433164366077   -0.78103580121252
H           8.66045077053952   -2.59275318994140   -1.88535161089947
H          10.59606046071569   -3.70536645614766   -1.30737102306657
H          12.76420129920669   -4.16669083215036   -1.18420772611930
H          14.83367393216067   -5.31569597122761    0.69495761563225
H          13.53603639467764   -4.25583463637146    1.28278567620252
H          15.32622646053676   -3.54470221191150   -0.90285066386206
H          15.40575255529511   -2.94157032637272    0.63246193119914
H          13.20650103179794   -6.32001603908697   -2.44039186834771
H          14.52111345166949   -6.65509044665843   -1.30007648635052
H          14.39332662772020   -4.27882534448589   -2.98959986687145
H          15.42745003960519   -5.54100221992543   -3.14445241964298
H          14.26394690793052   -7.51108088850673    0.79676531046100
H          13.67852468808866   -9.00473968106681    2.71326175966938
H          11.55634471686491  -10.34527095302618    2.69316638487611
H           9.62535104212382   -9.00260104434017    1.98856778811844
H           7.96293118317681   -7.25045272450137    1.01954825344659
H           6.84473701579860   -5.36246303844709   -0.03981743485088
H          13.46596692823999  -10.18456389939251   -0.09195586365054
H          14.53661671274011  -11.26265455600794    2.56447496607974
H          15.66026630586363  -11.35421284209088   -1.07995475205890
H          15.97228805975817  -15.47421240675058    0.17801968541454
H          13.35245011041595  -16.75964713525248    4.24508729202713
H          12.81530538932599  -12.74089142827436    2.75415627512163
H          16.56839009146304  -16.07020207981152    2.23874706075691
H          14.54556608424907  -18.31152747088508    2.65637623938447
H          17.49324684030118  -18.10299377012311    1.88354950063372
H          16.05684167315035  -19.23959071901808    0.10212112427478
H          15.73966391876204  -21.76596573952650    1.52356478354003
H          14.54761301901202  -20.79064344810618    0.70633983543716
H          12.68563129068902  -20.76633006718726    1.83784688193086
H          12.64354953945040  -20.48831041485775    3.64965400785427
H          16.03790322391746  -18.73407239647484    4.77079422060317
H          16.89998242295387  -20.79167998600040    2.86394851400924
H          19.36445578397903  -19.62025145918133    3.75063185493941
H          19.91892512257821  -20.16662551132766    1.35737098634626
H          17.70400524130581  -21.46936247803216    0.62373647673562
H          18.44275055835207  -18.81545778830094   -0.67718826410353
H          17.58962838211400  -20.14962954733607   -1.45843141886445
H          19.25902131469602  -20.35763344973605   -0.93547453342603
H          17.09421038001274  -21.55348919782896    5.30020882555764
H          17.83696541750429  -20.06161956501192    5.89675927577495
H          14.99979547508574  -20.98401572887727    6.52028409052756
H          15.77015185484370  -19.53325427908963    7.16415981441442
H          16.70840051684953  -22.40012931824221    7.66663884274627
H          15.85846441686975  -21.37727751818144    8.82485793564801
H          17.48826646356811  -20.95061235554009    8.30077853747343
