102
 SCF done       -187.368942812597          0.000693738897
C           0.75123809571211    7.77042109432158    5.66044514462189
S           1.08103369222458    6.91318676050358    4.20916964898833
C          -0.53751532489167    7.08467501549847    3.58636432722225
C          -1.30003451205777    7.80139316789046    4.51482452843940
C          -0.55237068658435    8.18245125513532    5.67971251421456
N          -1.38465056101168    8.87325662853936    6.50456274064685
C          -2.61623303230400    8.93529497263503    5.89380777531191
N          -3.66521350891643    9.60944208888655    6.55255877362532
O          -3.39078290790260   10.09520393454616    7.63989971180008
O          -4.74733817924078    9.66339559833194    6.01114582963659
C          -2.61135784311660    8.29203780348596    4.67370231313324
C          -1.02127497383388    6.59519988359538    2.35493240479332
N          -2.30762482945797    6.79616312431455    2.06684381724419
C          -2.50210502658099    6.25424698403970    0.85484084279620
C          -1.26455987207309    5.67344898376522    0.31964243721086
C          -1.50820162987871    5.09094083160699   -1.00955715132102
O          -0.72027556161133    4.54230619558690   -1.75377363326359
C          -2.94416629022931    5.34099040068099   -1.21727107069807
C          -3.51331041748242    6.05504098789737   -0.05992658103908
N          -4.83480904706209    6.28396388607471   -0.23899807392101
C          -5.11541945642649    5.76587494697912   -1.41303759220748
C          -3.98264236403793    5.15878051073012   -2.07602207247015
C          -0.29906745195850    5.87560669011264    1.27837437785328
C           1.07460025002170    5.50696057780229    1.29455740840931
C           1.68625588081963    4.89087345842018    0.25793405241489
C           3.06500112001112    4.48281854974782    0.21069901186318
C           3.88979499714187    4.47236240735637    1.31865456573911
C           5.22168603647378    4.04150108453813    1.20159659060559
C           6.22848445524619    3.91526580578271    2.16011408914844
C           6.10181765121064    4.30418436003627    3.59472622946072
C           5.96839463415780    3.08411506615361    4.53330385914411
N           7.09783958320790    2.17685843193340    4.42053821561686
C           7.23953801395519    5.23643465358673    4.04552080687178
N           7.20257263238926    6.44991907702296    3.24974275791017
C           7.39179650621056    3.40523184531510    1.47664427356840
C           8.60675435817634    3.02001076441477    1.92065793350150
C           9.67245259073175    2.58907265585576    0.97947364282359
C           9.23324823459244    2.40490224471147   -0.43994613305319
C           7.99929992895334    2.75417720117653   -0.86176996169744
C           7.05009226823500    3.25777614887333    0.05039217290571
C           5.72443740033506    3.62838563360568   -0.09688775180807
C           4.86457067213500    3.64885886715186   -1.21699620815455
C           3.57811328196345    4.05287084755998   -1.05716831428078
C          10.67275712973561    3.70728812678289    0.84611830975711
C          11.99582997840498    3.52427934679801    0.70949628213958
C          12.89073208635873    4.62251538787847    0.54159683099512
N          12.48279545343332    5.87949788572800    0.65810957607023
C          13.57488650142007    6.64203200519680    0.46033940634589
C          14.76077624286433    5.81957796831029    0.18754863647607
C          15.93526902280010    6.67016910217155   -0.03337437239279
O          17.07586397458119    6.33360189317976   -0.29638804846977
C          15.39249808515439    8.02713903080371    0.13696927889624
C          13.94938730941799    7.96677505150396    0.43491717745297
N          13.44066047432025    9.21172910007113    0.59410727129903
C          14.45925252515212   10.02207061888535    0.41850092314291
C          15.70595292513021    9.35035452256975    0.12929479437590
C          14.33571340652186    4.51142499855913    0.24040218487093
C          15.05812789959145    3.30798509379693    0.02768964550844
C          16.37532636880409    3.31203684990973   -0.29255283355976
C          17.16935819957723    2.17412689600002   -0.54788450354387
S          16.59296758171811    0.51760413733119   -0.47421248729473
C          18.10407278560895   -0.15482220764648   -0.91327923516114
C          19.04375118103912    0.82925087722761   -1.11817243453712
C          18.50541425792188    2.14498400895160   -0.90762428338016
N          19.49019183623023    3.05101804212106   -1.13176266115940
C          20.62497681427098    2.35338438583072   -1.47587746777047
N          21.81421784657241    3.05139128053192   -1.76990597318657
O          21.76595288256447    4.26705679351714   -1.70135834320004
O          22.79505959463718    2.40128648697683   -2.06906331222872
C          20.40467483751776    0.99562199415739   -1.48134501699896
H           1.52798608242826    7.91106905582988    6.38394466999114
H          -1.19364138557593    9.28968482341227    7.40245020027585
H          -3.42674589888727    8.18408595849801    3.98879244067835
H          -6.11813737213721    5.81330229928315   -1.80075731181498
H          -4.00254913371972    4.68147436158602   -3.03579296775174
H           1.63293090551399    5.75393058620592    2.18551668922529
H           1.10613885031373    4.68800495778313   -0.63316097961870
H           3.51382765953808    4.77442153698632    2.28411772244044
H           5.17632057004285    4.87942793799625    3.69769485529257
H           5.00543221349632    2.59427037994081    4.31572364903951
H           5.93408951739982    3.45416647361920    5.56108803196833
H           7.00798662995661    1.61329437601921    3.58169795270160
H           7.12363732154740    1.54725557369393    5.21418669251235
H           8.19805497430647    4.70314337981014    4.00068660511632
H           7.06473726907182    5.52200904109224    5.08687673209618
H           7.36707427377130    6.23481244824156    2.27166000128857
H           7.92064062569787    7.09813584793521    3.55218147937550
H           8.86425328549196    3.03368008507591    2.96880417042005
H          10.17774657114149    1.69222932510889    1.35500591417138
H           9.97605740371079    2.02339403496342   -1.12255280929690
H           7.71648651712375    2.62662863213545   -1.89659091959213
H           5.23522801775813    3.33733451850449   -2.18218127492292
H           2.90171175759491    4.06559536587091   -1.89883281512523
H          10.27641257458301    4.71008054794247    0.78888629668186
H          12.42116658179960    2.53032410502284    0.72911811802515
H          14.32356652863773   11.08712570651115    0.49258497010420
H          16.64872928852742    9.82999572167508   -0.04562042773439
H          14.53222484856697    2.36622063801525    0.11181420529461
H          16.89145811411664    4.26075176371852   -0.37501531647676
H          18.20990586456515   -1.21723892414801   -0.99403193853042
H          19.44235980038001    4.05735361429965   -1.07119288067814
H          21.12619373459535    0.24054472401040   -1.71567935333571
