118
 SCF done       -189.440411765871          0.000271878306
C           1.18733179639910   -0.95921431612001   -0.28163764525918
S           1.64116771187572   -1.22744397471281   -1.91924098973419
C           1.13000110876594   -2.89600299955472   -1.89689029971623
C           1.30216031894814   -3.77773622407940   -3.08377203155468
C           2.74320305327424   -4.28007139846429   -3.19710429930721
C           0.64841035371184   -3.19391672804696   -0.66512753032036
C           0.66921379613831   -2.09326445463562    0.27172661985125
N           0.17999250644468   -2.38078137815495    1.50113941721134
C          -0.21429317125587   -3.60116133230203    1.59457409323890
S          -0.02061676794857   -4.59758891291114    0.10218406580503
C          -0.77078163360854   -4.22264028798119    2.74289522929336
C          -0.95915446924653   -3.55018873307295    3.90387932087074
C          -1.49474037372163   -4.07612035974243    5.11435119666437
C          -1.88871281182337   -5.37794846243450    5.30848938656621
C          -2.38684786581302   -5.89860803461961    6.50209762136080
C          -2.42979392444234   -5.07550680324844    7.72368661370601
C          -2.12054430532655   -3.76153915969202    7.76366575250676
S          -1.60705476298272   -2.86538801060704    6.39531469708987
C          -2.83780472309793   -5.95777488229661    8.75830040162831
C          -3.04311035963200   -7.23348327262371    8.23062666524612
C          -3.45154318641919   -8.15885235462296    9.21731317973019
C          -3.53796157962101   -7.57733990664735   10.44136971915378
S          -3.13884433426250   -5.89016652084908   10.45064534746759
C          -2.79359473445744   -7.20652753114025    6.81558637721542
C          -2.96862343637910   -8.34176259731943    5.97549733594964
C          -3.21451624942241   -8.33239231512302    4.64583307000816
C          -3.39623878971431   -9.50272558263360    3.82637392960314
C          -2.95363245545625  -10.74930340422156    4.20559885467928
C          -3.19124184000896  -11.87349215232515    3.38981476170321
C          -2.87942134412576  -13.21423746531604    3.55411078493081
C          -2.25068586769368  -13.90672731904593    4.71914936911606
C          -0.85290199682154  -13.35915819291684    5.05332021000358
N          -0.05453595438947  -14.40026893539930    5.67954669601617
C          -3.19044399481903  -13.84581614241525    5.93861161811331
N          -4.48457812700239  -14.42157736566908    5.60087023864136
C          -3.44642188118365  -13.91365833588751    2.42582346551389
C          -3.46914452066806  -15.22392447631792    2.12274268345911
C          -4.28698357620027  -15.74393657991257    0.99658379033963
C          -4.85975427459778  -14.68150433616617    0.10412795071294
C          -4.77284120840094  -13.36961199169792    0.38686687839719
C          -4.10649154110118  -12.93114607182987    1.55807202790305
C          -3.92602401412889  -11.69412021121741    2.13896863740839
C          -4.32912888900031  -10.39339521206570    1.75130760358358
C          -4.06335728454678   -9.34235304255607    2.56349387732581
C          -5.45149197957775  -16.54335177422231    1.54451131740622
C          -5.84030463339212  -16.48458544553183    2.82109831326135
C          -6.95852584516079  -17.17020599444648    3.41054725988378
C          -7.24343168931879  -17.00322639909746    4.73838589947962
C          -8.30421573739281  -17.60704208133903    5.42353978281808
C          -9.14585316304258  -18.60617859867388    4.74708337578389
C          -9.04947362396570  -18.91812275636760    3.43694993475261
S          -7.91909744178826  -18.20225405313410    2.36113145639378
C         -10.01706462300755  -19.11012907594831    5.75178763240855
C          -9.75353147232076  -18.46953312419161    6.96016863877386
C         -10.59815178271683  -18.91916886101217    7.99847528023674
C         -11.46095433433924  -19.87349443910239    7.56173737696968
S         -11.29001448849942  -20.26061053145049    5.88160544463721
C          -8.69930271687059  -17.50418968098368    6.76608113976902
C          -8.24481529815982  -16.65020500115449    7.80246225434746
C          -7.55275221695599  -15.49103948573194    7.65600623242703
C          -7.13295376488719  -14.70147334217920    8.75237130587265
S          -6.26962595590200  -13.20028625730455    8.49903498707136
C          -6.13509269406522  -12.84747289073718   10.20387669618257
C          -5.50512863840333  -11.58894584944001   10.68561443371616
C          -6.39280060183148  -10.37787662880189   10.39052828287366
C          -6.73212991797960  -13.84333459439475   10.90816467203939
C          -7.29404740850996  -14.90230864633577   10.11415763856892
N          -7.87761238040495  -15.89282060208314   10.82202628538233
C          -7.81799531690983  -15.69340733777159   12.08946966613098
S          -6.99243237107624  -14.17814622725110   12.59190043658970
C          -8.34330935731445  -16.55995752361471   13.10502740557906
C          -8.94516405552116  -17.71633410592297   12.83491321093405
H           1.32817413855298    0.00232083430549    0.16602918414855
H           1.03916501723722   -3.22750023179088   -3.98989479155480
H           0.62385658815200   -4.62851892959785   -2.98366194166083
H           3.42744717648935   -3.44057963212327   -3.29820257737302
H           2.84910877842435   -4.92378619921034   -4.06654198893289
H           3.01653391831391   -4.84597967554254   -2.30941355256433
H          -1.03031035608566   -5.26506287931742    2.63371050363457
H          -0.67527464931939   -2.50621036254353    3.91850141862356
H          -1.76387755467194   -6.05519019278454    4.47710051916926
H          -2.18049008219908   -3.17885420317628    8.66959347405250
H          -3.67030710490043   -9.19536634951449    9.03505837015415
H          -3.81338016939470   -8.03538470110781   11.37169103642635
H          -2.96591438879616   -9.29077227586851    6.49711307384638
H          -3.36756919355402   -7.38466200023941    4.14727931930983
H          -2.40706307025749  -10.87033227610356    5.12766341043692
H          -2.11907130812625  -14.96077538757322    4.46212709262980
H          -0.94257384662705  -12.45187210191820    5.67280197680544
H          -0.35140920609260  -13.07925479992541    4.12261987583028
H          -0.45791646129113  -14.66746185493248    6.57118026780018
H           0.88756201756359  -14.06831315996615    5.85389874662832
H          -3.27070096684577  -12.80143936291821    6.28161211123598
H          -2.77172325882417  -14.44171339332309    6.75451563901531
H          -4.92982576091040  -13.84036953410487    4.89503290954628
H          -5.07859578286595  -14.40981488960418    6.42409491802415
H          -2.96069511791151  -15.96144474859718    2.72806898524208
H          -3.67729044063132  -16.42973917025183    0.39015408778405
H          -5.38634360037387  -15.03217230952071   -0.77057201088487
H          -5.21532201377218  -12.63503731917580   -0.27105640625633
H          -4.84357581978426  -10.25489526217795    0.81129094659624
H          -4.36868900322694   -8.34464677437001    2.28027957201896
H          -5.99281107244207  -17.13727902617370    0.82093583798689
H          -5.28689075820895  -15.87255243068944    3.52185641165375
H          -6.56077579153426  -16.37441127764690    5.29129108552343
H          -9.69385216583659  -19.64275289353676    2.96446642257706
H         -10.57390716339512  -18.55895459707366    9.01104621696863
H         -12.21050334147471  -20.39231690324890    8.12700961448903
H          -8.51940904133786  -16.93861275332049    8.80858768355723
H          -7.32928663527730  -15.09739164198691    6.67589701640399
H          -4.53418648429791  -11.45389413014032   10.20119876583803
H          -5.34238717379312  -11.67696592317976   11.76241183568435
H          -6.55734716181835  -10.28359320511130    9.31912168442932
H          -5.92384071932111   -9.46617646629477   10.75087549896130
H          -7.35758526685840  -10.49078650323545   10.87969501936995
H          -8.21808004061875  -16.21382525685476   14.12181402790299
H          -9.05858355517206  -18.05273257908097   11.81912679414734
H          -9.33092300722000  -18.34872616600769   13.61485874110612
