97
 SCF done       -178.096742218956          0.000717448584
C           3.55009352578244   -2.18530676538358    2.84277584842268
S           4.81663480728266   -1.07320231901959    2.50763005665127
C           3.79251812474990    0.32266423273146    2.72349745747192
C           4.33174972978212    1.70649121669577    2.62489900663043
C           4.99600653582192    2.13293592957102    3.93629477083333
C           2.54218147476157   -0.09271274614182    3.04461617598225
C           2.38539245629751   -1.52806968005637    3.11578009986876
N           1.14205429807910   -1.95008616921181    3.44479147902567
C           0.33023486475893   -0.96962914102075    3.63114672316514
S           1.02943858055677    0.67532353900256    3.40251109677940
C          -1.02656450379584   -1.06957011448101    4.03642634040682
C          -1.60457482631802   -2.25289885521124    4.35255542986861
C          -2.92675775945280   -2.42547341248694    4.84727400024419
C          -3.39251396383626   -3.65697569922708    5.24798044604819
C          -4.64129644552061   -3.89685377813469    5.81338491039319
C          -5.57127938853725   -2.79699667606611    6.09881022256118
C          -5.34800233195289   -1.51204219679609    5.75132097345512
S          -3.92217824239371   -0.97286604944636    4.96117040962995
C          -6.65562828251209   -3.39165326378332    6.80052981068992
C          -6.41350116591402   -4.75542112287466    6.96701422084730
C          -7.45801168994739   -5.40068228373182    7.66518343585073
C          -8.44217215925012   -4.52895615377479    8.00722951581603
S          -8.14895045728586   -2.90019229201858    7.49372853120587
C          -5.17740643902598   -5.09770140101452    6.31637004552506
C          -4.62726483728199   -6.40123380867964    6.29851339242382
C          -3.81868275085523   -7.00095062575522    5.37984811147695
C          -3.56229877685384   -6.68238788264894    4.01715492880933
C          -2.51235293331745   -7.36579618848752    3.35006411173871
C          -2.28899966364935   -7.23820418371880    1.93290524315036
N          -1.27235319545060   -7.88751371670712    1.36411894298531
C          -0.48148046468850   -8.65103996375956    2.09051314673673
C          -0.71922151995261   -8.79212301996239    3.48867474588028
N          -1.70838450317047   -8.15503936948636    4.07578369010126
C           0.11267855894116   -9.63266250215295    4.26888059375774
N           0.79804751755506  -10.32150248894713    4.87601153814366
C           0.59151157770643   -9.32586107557278    1.46484885826489
N           1.46697746308783   -9.88943066303223    0.98522395310244
C          -3.11735145802140   -6.46347563752431    1.08308404539816
C          -4.15358730858527   -5.75610624753467    1.75252185101509
C          -4.36196812682144   -5.86365008482066    3.18369002746337
N          -5.42042783675181   -5.15786492314794    3.57643202811852
S          -6.08118238801348   -4.41663560835893    2.31618333564936
N          -5.06704874068735   -4.96804637951787    1.19077971909966
C          -2.93560349346742   -6.47700377981877   -0.33124706119706
C          -3.73852425112243   -5.71715946806660   -1.17115041179828
C          -3.71501142170274   -5.74358896185066   -2.55085334551970
C          -2.81687940367588   -6.61453567394787   -3.29281973613984
C          -1.90389771180423   -7.40458937421856   -2.68516626155944
S          -1.68296252535612   -7.52862044697476   -0.98225859203345
C          -3.14432138096038   -6.41404529833568   -4.66466783855538
C          -4.17984357840201   -5.47979870768095   -4.78221567817279
C          -4.52240090903238   -5.25221419516569   -6.13650913978782
C          -3.76730308510035   -6.00054773715132   -6.98046696177595
S          -2.60852907645098   -7.01001867512282   -6.17975937024730
C          -4.54970276653985   -5.03188447516403   -3.46717864755139
C          -5.50706746360756   -4.08855234360447   -3.07461942238115
C          -6.44223585927106   -3.48606548062054   -3.87353106266358
C          -7.34367937097099   -2.53358988681347   -3.37282063416903
S          -8.64892687026504   -1.89682686777295   -4.35013345268034
C          -9.25892460691848   -0.87170910367920   -3.07716126239723
C         -10.48174635811325   -0.04714731181374   -3.26348277811856
C         -11.74722647664307   -0.88736247880882   -3.07010410657889
C          -8.48754896430093   -1.02572815994554   -1.96683932085592
C          -7.39692972994475   -1.94789880852093   -2.10757349818163
N          -6.60864823122123   -2.06516650959734   -1.02577893513569
C          -6.99524548678537   -1.31694005687437   -0.04900550156702
S          -8.46508242240797   -0.34127903073286   -0.37135028045992
C          -6.34375130492958   -1.20355602551153    1.21856546222200
C          -5.17827386286848   -1.79883891433646    1.48624951508979
H           3.73699372453914   -3.23868445994338    2.82212384530555
H           3.50728848744934    2.38559317391459    2.39459353946511
H           5.06274589318418    1.75833182033857    1.81551528934315
H           4.27594919703497    2.10344274841097    4.75086503045837
H           5.38240047195050    3.14505170264244    3.84979063192927
H           5.81926698776864    1.46391214423459    4.17651578017474
H          -1.57209840906552   -0.14003408908460    4.12055129466963
H          -1.00638324789095   -3.14903735028530    4.25920238963076
H          -2.71436292234079   -4.49306730292375    5.14334604727811
H          -6.05259188120455   -0.72084006291418    5.95348038588906
H          -7.48377088433412   -6.44844456543154    7.90346900650900
H          -9.34942590657933   -4.73659836713351    8.54029247592291
H          -4.88631021472368   -7.00210342807305    7.16440696865102
H          -3.33811345169248   -7.92215242219578    5.68724828083225
H          -4.46033705550609   -5.08038727763645   -0.68104461906938
H          -1.22624421535717   -8.03450073199381   -3.24072209697934
H          -5.27720246285076   -4.57167046697027   -6.48466742965342
H          -3.81302712213515   -6.02871137724582   -8.05160774460445
H          -5.51883349212640   -3.81641806996279   -2.02814084298630
H          -6.54064980135222   -3.75134101755126   -4.91493052969654
H         -10.48434681851961    0.38308191472847   -4.26722949761084
H         -10.46709550065358    0.76622575039275   -2.53400544767434
H         -11.77530280981080   -1.69863258339112   -3.79406130678641
H         -12.63035283969544   -0.26868237954781   -3.20453885561135
H         -11.76911912474697   -1.31313928981907   -2.06955282690910
H          -6.84900438394269   -0.59500125117345    1.95571297213006
H          -4.66724619155526   -2.36683067095550    0.72871043306732
H          -4.68659676927196   -1.67507474666370    2.43448187780656
