142
 SCF done       -215.323709778696          0.000773931009
C          -2.09928622811553   -1.01631389337217   -0.09172362556990
C          -2.78653737499369   -0.25759596551375    0.82985972981208
C          -2.61002558490288    1.14515977988317    0.93993893718316
N          -3.36844242184069    1.72390451107255    1.91539198888329
C          -4.08658088595336    0.87235678431876    2.53138913031271
S          -3.95042181089653   -0.79167155776060    2.00934600591903
C          -1.72651009380161    1.85391542482885    0.10200946617154
C          -1.03578349843744    1.06962465440527   -0.82500015150175
C          -1.21269400751432   -0.33825374520950   -0.91970355128414
N          -0.44358520575370   -0.94832219943402   -1.86878407599750
C           0.29550071379346   -0.11730815361356   -2.48493538509210
S           0.15493789459826    1.55463905436904   -2.00089061656741
C          -1.62145691625035    3.27857452295173    0.29461208468578
C          -0.95317068418694    4.14984617119086   -0.47898511856463
C          -0.85601120791701    5.57715352901526   -0.26791772049259
C          -0.31803040911237    6.36548522618186   -1.29747562015350
C          -0.20987801799632    7.72398261548697   -1.13332271673516
C          -0.61879081458683    8.33255100575790    0.06511185970634
C          -1.14393483919800    7.56430129585747    1.09368080894093
C          -1.26097119922878    6.19978279253687    0.91932358001538
C          -0.37868448479238    9.75794269191470   -0.03604224041222
C           0.16837918348447   10.02853419789763   -1.30051596138820
C           0.32326001800139    8.75582413488612   -2.09977864754245
C          -0.51307804974481    8.80018823398011   -3.39196737631988
C          -1.98771056208450    9.08192656060305   -3.13031059714087
C           1.79881279694928    8.48970239332953   -2.45037428039532
C           2.69381366818902    8.41285593438817   -1.21949495543174
C           0.48529710287998   11.31535340055371   -1.66588378971085
C           0.27407883753405   12.35876584212915   -0.75955397759984
C          -0.26078086410669   12.07723526724426    0.49877532177305
C          -0.59459835275406   10.78719701046037    0.86699793932787
C           0.62267117348456   13.73612068155176   -1.12769347738647
C           1.26604817620413   14.55388665077274   -0.24155449043430
C           1.62002050790408   15.87110281626273   -0.61819139652972
C           2.28425750143806   16.86941393724333    0.07056827893474
C           2.81126494572446   16.77146660719325    1.46634953911979
C           4.32740577407418   17.00934208531664    1.52657803401277
N           4.98985104380377   16.22922962905792    0.49544389478772
C           2.05688369159208   17.71667578341513    2.41492070072997
N           0.69355118164324   17.23810345651047    2.57216946625051
C           2.36168569145275   18.00816491288624   -0.81508785580484
C           2.90344663898155   19.23158435160882   -0.67326520884268
C           2.86891117816259   20.24622785082143   -1.76475525178898
C           2.16002849192857   19.80482709720118   -3.00560763399570
C           1.61927892095269   18.57951848509739   -3.13594473738439
C           1.70207461611103   17.64177139768821   -2.08063272108737
C           1.26080905931359   16.34153109711809   -1.94945363120553
C           0.58154761782473   15.47342553366719   -2.83582480751080
C           0.28582059318399   14.21102929969801   -2.43623715136612
C           2.23910503423802   21.51457566360168   -1.24231210122751
C           2.88306497039681   22.67650859272866   -1.15519131291406
C           2.34877159126362   23.94489162325881   -0.68628242935067
C           1.05873524452070   24.07740373774318   -0.15680677116616
C           0.61964408878738   25.31151174283439    0.25807288852684
C           1.44861200042675   26.44095844428377    0.15634914191340
C           2.72914914076877   26.32258326525466   -0.35903819485113
C           3.16460306397908   25.07821958605210   -0.77158728455412
C           0.72172180040854   27.59320916858563    0.65176441004964
C          -0.55318910619511   27.17237627877947    1.06234628833786
C          -0.71692292387025   25.68500875311222    0.85691099301676
C          -0.95280433405126   24.95830636143648    2.19426540539482
C           0.16052173720354   25.20379538362132    3.20557017891599
C          -1.87746008355052   25.37885003940240   -0.10725443343526
C          -1.73559282747246   26.09140783310583   -1.44650925420118
C          -1.46351888339434   28.07375864668553    1.55924589982716
C          -1.10448284511554   29.42120573632449    1.65468404808110
C           0.16638823804159   29.83114743346255    1.25001114832826
C           1.08340774781694   28.92715751403635    0.74710731581460
C          -2.07006868348669   30.39939971154668    2.15866974694333
C          -1.74127932686801   31.41607597810921    3.04565205498605
C          -2.68829469835437   32.35454202877892    3.52512382687230
N          -2.17901903746392   33.25524931490803    4.41541839375660
C          -0.94267264681034   33.05527674340033    4.64259509873558
S          -0.19554371991140   31.72888622219215    3.78830272964082
C          -4.03362885560737   32.33634625185144    3.11610640184736
C          -4.36129769357716   31.31911868632873    2.22183197101678
C          -3.41325230363040   30.36638098877971    1.75870528509811
N          -3.91638988952670   29.45172581665717    0.87881426147406
C          -5.15358247726708   29.63636694241819    0.65188926706348
S          -5.90298450402704   30.97298504578963    1.48818229417617
C          -4.91784856129303   33.35084384587507    3.65805000894849
C          -6.21054476908696   33.52042633658320    3.40240825388543
H          -2.22249548966215   -2.08184195994305   -0.18068221195166
H          -4.75054151893224    1.12570665195528    3.33472981689750
H           0.97780945888442   -0.39017210908069   -3.26630697274600
H          -2.17992845056738    3.62652310435815    1.15131227159056
H          -0.44537272180801    3.79544748059841   -1.36643798269337
H          -0.00009553521864    5.89153202478496   -2.21581180327710
H          -1.45516184921519    8.02453467318787    2.01986053727102
H          -1.65956125892213    5.59984467705878    1.72263949288991
H          -0.41272987726386    7.84250935180375   -3.90756543136157
H          -0.10621194389743    9.57526567719663   -4.04532597348974
H          -2.41566944660462    8.31653414882406   -2.48676094546518
H          -2.53968898683390    9.09256148673102   -4.06754585408770
H          -2.11370073976974   10.04693293064619   -2.64446141563647
H           2.15237170626676    9.28982641756877   -3.10431933468841
H           1.86382728118634    7.55114844971887   -3.00524617094307
H           2.65215997266201    9.34299687261849   -0.65708130194811
H           3.72507985577926    8.23520412636318   -1.51653786977284
H           2.37856100782800    7.60244890181941   -0.56601604256210
H           0.91898917274334   11.52613395318651   -2.63295745322189
H          -0.43541460198067   12.89224496457189    1.18623324533007
H          -1.01751550420415   10.58812896440232    1.84067890772551
H           1.52775064667849   14.18825994975194    0.74077919047584
H           2.61868385597835   15.75448502587188    1.82326042135669
H           4.67516676996059   16.77218571623986    2.54842631705251
H           4.55736139706766   18.06083298914830    1.33685250883722
H           4.73939315307834   15.24975922442130    0.58230347237442
H           5.99726493017901   16.30429794265898    0.58442825254032
H           2.11555399825926   18.74786682941122    2.02943054460974
H           2.52970929859162   17.69818897230519    3.40239682423169
H           0.24884895231683   17.17349713456974    1.66134699849682
H           0.15295639784020   17.87995396277613    3.14156808830752
H           3.38958679634481   19.54973287346782    0.23830078241695
H           3.91306095287621   20.47862367651437   -2.02568002870221
H           2.10163238964775   20.53560921154505   -3.79839204163331
H           1.11765738742862   18.29437220546179   -4.05013606288821
H           0.30812324677674   15.82354950625364   -3.82102932919383
H          -0.24278714380114   13.53986107543227   -3.09793400227023
H           1.20350697030461   21.41083532404386   -0.95371772186095
H           3.91916607122487   22.71727638722583   -1.47295938842124
H           0.41613095738645   23.21435169311745   -0.07356019085881
H           3.37583180968993   27.18377606005564   -0.43821684704710
H           4.16147405405573   24.97336461464161   -1.17675811796754
H          -1.03654633588341   23.88660517635283    2.00035429009214
H          -1.90304259878294   25.29771295935449    2.61196097921542
H           1.11448565537784   24.85058292006330    2.82008037425025
H          -0.05267396766375   24.67727296844565    4.13325050891226
H           0.25181278998772   26.26526514066008    3.42492123858988
H          -2.81326620676147   25.68467182893914    0.36488544583140
H          -1.92045121923566   24.29969815074178   -0.27128756856604
H          -1.74704342166867   27.16988748587836   -1.30743134549268
H          -2.55929811018421   25.82040753869041   -2.10310848521378
H          -0.80211664895198   25.81478581735585   -1.93220462975682
H          -2.44506860492352   27.75998460564690    1.87733275972061
H           0.42723320032499   30.87803026233543    1.29987072203779
H           2.05877028015146   29.26170583320051    0.42697749753078
H          -0.35732139538620   33.65690900816606    5.31029804085210
H          -5.73565116220648   29.02393775760444   -0.00875881794914
H          -4.41302379368380   34.02097691838565    4.34056836478996
H          -6.76999524016869   32.89145983921620    2.73187071815045
H          -6.76132663509701   34.31972571473145    3.86759920279669
