66
 SCF done       -125.880158901248          0.000225748100
O           0.10338218497006    2.19408777283913    1.80836170743208
C           1.05915518637795    1.50488846404782    1.56937613569981
O           1.43150122747225    1.24645589289659    0.30291127872165
C           1.87402560567804    0.90806340225925    2.63407381594715
C           1.64026544391685    1.06027835237307    3.97805219989268
C           2.58535261048262    0.37691985779954    4.74828978369587
S           2.86546214783197    0.16278173652778    6.43677271169397
C           4.27341424791526   -0.83495795701863    6.11028587577579
C           5.00025978311642   -1.34841668534269    7.22596644353312
C           6.10192105810111   -2.12090011666557    7.14519739520195
C           6.86440171983002   -2.63493090385926    8.25686187942359
C           8.01168594990005   -3.39928323871386    7.99676521864633
C           8.78457024556211   -3.89663296563624    9.01814009922468
C           8.44605273592718   -3.65078342755803   10.35470505039430
C           9.29452846978891   -4.17761439496069   11.41173335709683
N          10.30894481990840   -4.94388153756446   11.05143954164926
C          11.14874376018035   -5.47271329152493   11.93136023568978
C          11.09070021024478   -5.30233198234598   13.30901477131230
C          11.99014798710765   -5.86237382798041   14.28130434781408
C          12.99359873650103   -6.72231490339116   14.03194655576285
C          13.88459660958446   -7.28634605685881   15.02137253810551
C          14.76000139698601   -8.31196115719470   14.64406153504477
C          15.61444702067271   -8.89576041183852   15.55205441082594
C          15.63668012727163   -8.47182654958190   16.88208179897030
C          16.53039234628930   -9.09272810595013   17.85205393500906
C          17.72067821791216   -9.69994151571075   17.54848642406485
S          18.56549329021925  -10.36440332048258   18.89639760000626
C          17.30303411721288   -9.84157039636891   19.95537233505930
C          17.06577515622406   -9.95079416983736   21.33174890308739
C          15.87760540101022   -9.36817739405071   21.68684384517573
C          15.34283170607853   -9.30974737648366   23.05432376990013
O          15.92685767289459   -9.79015173838494   23.98804605227416
O          14.16094801978599   -8.68946485797000   23.21627066829487
S          15.03914513467043   -8.67403507590703   20.31011960906350
C          16.30300886339810   -9.17410968933810   19.25192369304137
C          14.77732672255324   -7.43959931960491   17.26142586109072
C          13.92094790423048   -6.85935650280697   16.35303263434585
C          10.02173702770294   -4.47881011612018   13.74477862552009
N           9.72938908099687   -4.13800315897381   14.99985243337911
S           8.43177386202269   -3.19402591121129   14.99022756210898
N           8.17322842665872   -3.16815237945843   13.40459989307076
C           9.10297009034691   -3.90713644863521   12.79783437952932
C           7.29756192915963   -2.89926849816690   10.62233946197003
C           6.52574867698421   -2.40470364236902    9.59637213612990
C           4.50063771624909   -0.98663676366441    4.75987353017874
C           3.54944229966643   -0.30350277443258    3.99749422689530
S           3.28076045875435   -0.09398286771990    2.30710315845217
H           2.21355482483099    0.68107493972694    0.24541524494620
H           0.82169514973564    1.64149035624679    4.35971742538460
H           4.60270880650278   -1.06514946538484    8.19011071634449
H           6.47903689873317   -2.38966331936419    6.16717193906710
H           8.29143467217030   -3.59434291647058    6.97098490784048
H           9.66783159791250   -4.48056802140746    8.81338417645685
H          11.92881641473628   -6.07430284521639   11.48518599062774
H          11.78315586736453   -5.54176829909812   15.29268058883285
H          13.16499898267181   -7.06021748050950   13.01828028224136
H          14.75392957098824   -8.65991578670318   13.62085584129906
H          16.25933706732923   -9.70222178734041   15.23728686975630
H          18.17611536852083   -9.77569169446691   16.58089433311978
H          17.71500902651625  -10.42702276415334   22.04241739784588
H          13.79379586471676   -8.34783408353002   22.38977409606794
H          14.79350092534456   -7.07518641070169   18.27774643327769
H          13.27919108271912   -6.05666203299601   16.68001887344267
H           7.01974631934539   -2.70651843587155   11.64615338823121
H           5.64565923487898   -1.82992708002724    9.83898010344161
H           5.30912891862100   -1.55737691978545    4.34395196657114
