116
 SCF done       -237.212282727502          0.000689384965
C          19.01098703008722   -0.24718917839381    3.29716022891886
C          20.22393068378133   -0.16442756585464    2.68495658451506
S          20.56167651578004   -1.58920848349518    1.77322606567098
C          19.03920266500608   -2.31792977224631    2.22146974848229
Cl         18.59579319888692   -3.85510363567745    1.66745700633506
C          18.33064251510262   -1.48172558161310    3.03388356234590
C          17.04358993726341   -1.50489318052327    3.72684662822022
O          16.22457291949001   -2.39383489990634    3.76260611119128
C          16.97051228980532   -0.18050553104020    4.43229964892073
C          18.18401836975990    0.58328317077705    4.14652505499528
C          18.48861929779084    1.85078863711268    4.55011744414117
C          19.70737135773035    2.46424514659401    4.18367788895579
N          20.69371594221273    2.97159774895820    3.89295733659119
C          17.65647470201903    2.68626407833960    5.32520344923077
N          17.01873002386723    3.42191749105234    5.93161654731695
C          15.95352322725853    0.17886777351849    5.23445353719267
C          14.75722075264915   -0.62859370932573    5.42250788254474
C          13.91848842924258   -1.00044617883461    4.37386602344029
C          14.02776764729221   -0.71153169952681    2.92941409382470
O          14.84476815702731   -0.05667884020018    2.33139870955647
N          12.94030018180733   -1.35911521936925    2.32976958280451
C          12.13529434506599   -2.02192978791409    3.26243437986393
O          11.13830923671799   -2.64982665356173    3.02308708034740
C          12.77349884154005   -1.77581818927466    4.57890378258057
C          12.38848422992391   -2.20917908488496    5.83502081289851
C          13.20997679815961   -1.83302724115866    6.89175739760276
C          14.36317104232722   -1.06989687414830    6.69133663718636
C          15.15730327943291   -0.81907867427039    7.90116670858137
O          16.20734772790850   -0.24775633440652    7.97379050952421
S          14.30743791222676   -1.53779753307240    9.30673086233445
C          12.96790359291955   -2.20484232129788    8.29652530532459
O          12.06040722659797   -2.83571449320571    8.74537361944811
C          12.75871472229913   -1.28608907633023    0.95254780183639
C          11.77008856508355   -1.86957402398472    0.26522974898359
C          11.57597084826810   -1.77986697277004   -1.16662945273477
C          12.39106246117654   -1.03498362976155   -1.99548058691603
C          12.13699513491436   -0.98034228689045   -3.37739240375955
C          12.79694802642657   -0.32248831050548   -4.41863980695561
C          14.01117570643542    0.52890390519796   -4.35779772767066
C          13.77023877049409    1.79176140677918   -3.47829390570992
N          14.71223346778403    2.86036575609151   -3.68075700258716
C          15.23375102653943   -0.27234829877225   -3.87309332584775
N          15.61896241840305   -1.20121409713053   -4.91705502952609
C          12.05755495170443   -0.60808022196906   -5.62804555083258
C          12.26466448573544   -0.23026408395404   -6.90475524312446
C          11.34314905351867   -0.65852132925747   -7.99515482357598
C          10.21077768269783   -1.52841945628557   -7.55537236174180
C          10.02758573889716   -1.90766853274718   -6.27487953962744
C          10.92709202710768   -1.47138698945382   -5.27741933941615
C          10.99408403314971   -1.70276609817852   -3.91030590969443
C          10.18118079011328   -2.46851551072791   -3.05091855401288
C          10.47372998683287   -2.50069503510093   -1.72148950333384
C          12.18316377079990   -1.32463589871837   -9.06488752366362
C          12.38533350324351   -2.63642392878666   -9.05864722448375
C          13.11757607865321   -3.41415311687562  -10.04586832628712
C          12.54243249829585   -4.60746448964561  -10.48962740568402
C          11.22330565608175   -5.15277526641141  -10.14655773224758
O          10.32849455026768   -4.63217386652554   -9.52581856758860
N          11.17375265640176   -6.42284851607189  -10.74773336229867
C          12.32112358530536   -6.67743585884698  -11.53581671327737
O          12.49333916770455   -7.68389488089076  -12.16773423112658
C          13.17972397056248   -5.49040687962119  -11.37253250682853
C          14.42594596752254   -5.20022555051241  -11.89576001624275
C          15.00760121148151   -4.00801161960640  -11.47862601694626
C          14.39054413058754   -3.13208033093581  -10.56947041255488
C          15.22740540229696   -1.98434919533041  -10.19030807754744
O          14.99080313375317   -1.10009681818683   -9.41759773851940
S          16.78555185355418   -2.07042634700029  -11.08861258885712
C          16.34462966209937   -3.59410293757600  -11.93003161114910
O          17.05641873004079   -4.14526579676497  -12.71613293362741
C          10.24534778693967   -7.40646770121715  -10.48983855223513
C           9.20566307760732   -7.24568121801641   -9.65000170457099
C           8.32603497333782   -8.28346072473139   -9.25090810827956
C           7.51319473478289   -8.21029147222472   -8.16195978077668
C           6.36561964060520   -9.15386900245139   -8.00289548082569
O           6.18381313060307  -10.17823391969935   -8.61397123627769
C           5.51110516636125   -8.51481512429284   -6.99116476466866
C           4.29724218593863   -8.74328818471880   -6.41680057848259
S           3.92242151581326   -7.48958375886874   -5.25584960086753
C           5.41631552769075   -6.67865147300260   -5.55427209941968
C           6.15052201330123   -7.33067293474388   -6.49479856557834
C           7.45299788267165   -7.19997269954207   -7.12048470674719
C           8.45499358817995   -6.38653573364337   -6.65647040735308
C           8.22566008169276   -5.42017401558588   -5.65726948438766
N           8.07483814587300   -4.59091056355949   -4.87745004703164
C           9.81660879941372   -6.44842408169819   -7.01858292774915
N          10.94873436443432   -6.47438758466559   -7.20754585486383
Cl          3.22572831309670  -10.02232865441844   -6.70664048873742
H          20.94360364999325    0.62986192528073    2.70611287641879
H          15.99659894041566    1.09757652126534    5.80525649794909
H          11.50768238831836   -2.81116427530319    5.99173365968863
H          13.53158987528603   -0.68444512317023    0.49326972626533
H          11.04052181403099   -2.46005549433785    0.79909580478435
H          13.21950360179257   -0.48232044345494   -1.58385064566861
H          14.24687483913149    0.86969529822515   -5.37157752010191
H          13.79851952589692    1.51686195814814   -2.42269437106874
H          12.77371797041182    2.18183599159572   -3.70070861903228
H          15.65667921534718    2.57834345419306   -3.44817858969279
H          14.70083951436692    3.18736614030141   -4.63958560484204
H          14.99990880659421   -0.75798387932485   -2.91280391499745
H          16.07734593600299    0.40651182834981   -3.71344959390285
H          14.88252042223441   -1.88020634156437   -5.07784712406569
H          16.46471636792722   -1.70016457122799   -4.66875550513477
H          13.11444953082677    0.36700035847971   -7.20295164911302
H          10.91858520783345    0.25334038396858   -8.44288880087539
H           9.54624717689949   -1.86366361490689   -8.33650373831362
H           9.20217204608540   -2.54460529220659   -5.99364159543623
H           9.34569375400722   -3.01971972385038   -3.45434699874130
H           9.86101410930429   -3.08149989056439   -1.04809809089449
H          12.61766861918761   -0.68163112382086   -9.81414491375349
H          11.89049448386067   -3.23946344990473   -8.30730097717839
H          14.93735301136564   -5.85854928829032  -12.57976938779362
H          10.48441116213056   -8.35279548063806  -10.95992490906480
H           9.03784968046584   -6.27039926330806   -9.22033532574028
H           8.24567869874019   -9.17277740194664   -9.86450463384619
H           5.64012319990809   -5.77493954369365   -5.02298638227303
