140
 SCF done       -222.940142925675          0.000753209343
C           1.07051728404408   -0.64299289526766   -1.69075950223698
C           1.37437708553521   -0.42439614112696   -0.36877298580989
C           2.03300891715226    0.84973912082461   -0.15535553451334
N           2.39987020591891    1.22391296434796    1.07323218914369
C           2.13720869292038    0.40246768009391    2.06443728688587
C           2.55454749830630    0.84200386958344    3.41352600410494
O           3.11725301090649    1.90203543750959    3.61443033853978
C           2.24046375260173   -0.09868317598785    4.50040321964979
C           1.62577641862619   -1.27123347025780    4.30938241201429
C           1.18767573551255   -1.76365737285699    2.99165646979992
O           0.62802417869781   -2.83149494612794    2.85854804238532
C           1.48039900483617   -0.85607804707996    1.85052942903692
N           1.11359044996557   -1.25365090675877    0.65911136018344
C           2.21022566961332    1.57766137800973   -1.33654080064662
S           1.56642653507943    0.66963932117096   -2.66384692167972
C           2.79937668447402    2.87452405443293   -1.51108346625203
C           3.33026259576591    3.55780359643291   -0.40261292468946
C           3.86642556087366    4.80591594996221   -0.58626290465243
C           3.89178796106432    5.40725868972921   -1.85755086951597
C           3.37967325541790    4.73276375765813   -2.95912244237667
C           2.84078287185123    3.47687100254948   -2.77837742620302
C           4.48935227633012    6.71895141979185   -1.73199013220395
C           4.83957263746912    6.92212441935276   -0.38556497941748
C           4.47371502773420    5.71925321446377    0.45046940515388
C           5.71293022471353    5.07852261933356    1.10268432575808
C           6.78236312170096    4.69116505433233    0.08841803796692
C           3.45132358584583    6.07687480296960    1.54552740146773
C           2.18229072054325    6.70912716547138    0.98700840846658
C           5.41937322085333    8.10266753193366    0.01375011433057
C           5.64382595775826    9.11281744450632   -0.92697268728297
C           5.28894568864771    8.90104985679462   -2.26110288953366
C           4.72162623168816    7.71051034384194   -2.67382308430704
C           6.23345866444522   10.38700618734417   -0.50136065272911
C           7.28777534493869   10.40873757272815    0.37271422879292
C           7.83293783639656   11.63957693688628    0.80584606957081
C           8.87375277737049   11.94360090151489    1.67018583303268
C           9.78256346245620   11.01867449750692    2.41286726383140
C           9.00405198387558   10.10484174001733    3.37125025792660
N           8.23963738497266   10.91606330951498    4.30287352835025
C          10.65710897585165   10.20997140938149    1.44004976245119
N          11.57940390263218   11.11723348863128    0.77591460352190
C           8.95553809046090   13.38420507142934    1.73359871061425
C           9.78802397120802   14.19705652889520    2.40864137402868
C           9.68614805763014   15.68033200646935    2.30757922410754
C           8.57300538963690   16.17008945583484    1.44355586790902
C           7.74979110204958   15.34370032708041    0.77087475973307
C           7.90784966933889   13.94227085235179    0.87149362079524
C           7.23803338498568   12.87340989147947    0.30605452163242
C           6.15854984509038   12.81624199000323   -0.60277783077632
C           5.67909653016672   11.60785872905950   -0.99595266428970
C          11.04675378359530   16.19396985644634    1.88442468235710
C          11.30594381546504   16.76226918425169    0.71102958740894
C          12.60375224716419   17.27781966664002    0.29651584265067
C          12.64158487166101   18.29918060849803   -0.66025946465004
C          13.84943441145573   18.83554958808428   -1.03694101236778
C          15.04756853970627   18.34794120549528   -0.48627210712188
C          15.02261828332340   17.31667584792523    0.44127477322563
C          13.80325524101648   16.79450460743414    0.82696613016579
C          16.15038066784345   19.09452642636884   -1.05295313454707
C          15.62944383633296   20.04612364145540   -1.94770657353074
C          14.12487362797397   19.95198259030391   -2.01525470643905
C          13.46421500341408   21.27153779825707   -1.57419879584789
C          13.88667252338949   21.70580025591208   -0.17585483724421
C          13.65109989994530   19.59571882087432   -3.43662301273589
C          14.26560603913626   18.30245436789681   -3.95830522938818
C          16.45234215088738   20.91231563697599   -2.62002976810756
C          17.83959620788496   20.84026878848350   -2.40401539016436
C          18.35185779585255   19.88023498534564   -1.51767648625845
C          17.52116871325511   19.01081070292945   -0.84285793342354
C          18.71570682639918   21.75395898049773   -3.08168491490362
C          18.38482395268764   22.79711621266535   -3.95193925598393
C          19.54330486018765   23.52389424386345   -4.43284780187616
N          19.41084217067871   24.56545808028157   -5.27520206118630
C          18.19501665744562   24.88548897044135   -5.63766561928448
C          18.03981780197135   26.03616514353671   -6.56694793968417
O          18.98127284508547   26.67530468644030   -6.98787671120167
C          16.65152405645074   26.35136783171424   -6.94395369079955
C          15.58554002553298   25.67291252044254   -6.50354003163340
C          15.67373669622207   24.52933108124792   -5.58323166015085
O          14.68902598919020   23.92933272221409   -5.19442807320445
C          17.04585444706917   24.16494971499353   -5.16620165831621
N          17.15611347891443   23.14820521852081   -4.34254329380580
C          20.72067219911874   23.02453781338530   -3.92961154743734
S          20.43615394012193   21.70130438505760   -2.88944589249564
H           0.58718703248207   -1.49369281788018   -2.12535241859321
H           2.54369009436305    0.22241113439284    5.48811900385480
H           1.41232520362772   -1.93471912655350    5.13680797387995
H           3.30077093430623    3.09489106948377    0.56990877912001
H           3.39768630599055    5.18266249335424   -3.94047129644201
H           2.43338134604890    2.94088007766083   -3.62431104179211
H           5.39372156761305    4.19165041610573    1.65277036540112
H           6.13350940369455    5.78564828282913    1.82097691631744
H           6.39265151780326    3.96558666050922   -0.62210500897827
H           7.63680676116070    4.24931378898104    0.59605505416704
H           7.12363683456898    5.56355846412692   -0.46558975403368
H           3.92030072549170    6.76884033777743    2.24825212896591
H           3.19559799682190    5.16635325363273    2.09021716951657
H           1.49547742240725    6.94420773662512    1.79673953098372
H           1.68351527032883    6.02820802641648    0.30082540791323
H           2.41180687211306    7.62883937664965    0.45245990761665
H           5.67324512469067    8.27318699844794    1.04993017408089
H           5.48405134381050    9.67832104039446   -2.98580120922908
H           4.46071795042236    7.55946855224128   -3.71089040298765
H           7.71398438903467    9.47691707448218    0.71333068480035
H          10.46779100274555   11.62319068718815    3.01571426159211
H           9.72088409994677    9.42545373513624    3.86682751545579
H           8.29317691775904    9.49207526129286    2.81444725592704
H           8.86206296680520   11.48222405281902    4.87001994199856
H           7.69932335074967   10.32746163541364    4.92676776370289
H          10.01353981928317    9.65302443882412    0.74160784073222
H          11.25475925723248    9.48540459516430    2.00208617328934
H          11.05615409003445   11.81392788286951    0.25382306143886
H          12.16430344406472   10.61127921112802    0.11971735854204
H          10.58472379644697   13.81192530670185    3.03041294528938
H           9.51797762293101   16.06598441268259    3.32736891697724
H           8.45515970126166   17.24219396767759    1.39066167873781
H           6.95400187911794   15.73903123366519    0.15567949991034
H           5.72257973827755   13.73365796288548   -0.97097104166280
H           4.84040672557558   11.54732546633654   -1.67398328230249
H          11.82958018852488   16.05240198495977    2.61642569137433
H          10.49927098227390   16.91447614530950    0.00550023780853
H          11.71701646747600   18.66927946067813   -1.08015946211256
H          15.93979858373805   16.92676777391292    0.85716325195270
H          13.77668865284860   15.98202787616321    1.53714319724593
H          12.37989277840411   21.14538190577543   -1.60192477314361
H          13.73030276671589   22.04847150360482   -2.29283315706548
H          13.61953256947421   20.95055340755975    0.56087725198341
H          13.39261934081614   22.63711636667345    0.09089463251677
H          14.96205126293162   21.86313647916413   -0.13120316330228
H          13.91211470980120   20.41899750609540   -4.10369101770920
H          12.56316471429590   19.50204445797099   -3.42845822872441
H          13.89811267118976   18.09181384959524   -4.95995183781695
H          14.00771033874199   17.46448636582831   -3.31356906817969
H          15.34966255427435   18.38180274863425   -4.00019115534996
H          16.05895387867577   21.64739576569412   -3.30249426741774
H          19.42057274941289   19.83150902486079   -1.36184728591893
H          17.93242288603036   18.28158810844126   -0.16106790927800
H          16.54298176196712   27.18885855841038   -7.62017792086874
H          14.58311924482221   25.94025821321040   -6.81039126253989
H          21.71734034667534   23.36725298744459   -4.11795139190881
