82
 SCF done       -159.562814249094          0.000461056744
C          -6.95229684637610    0.74160311099891   -2.73631718362800
S          -6.47965274640129   -0.36049113306690   -1.49334507121859
C          -4.90917234258171   -0.44999105470315   -2.15840506004083
C          -4.77169485007499    0.34689895941068   -3.29456515778258
C          -5.95268789888681    1.02953327746157   -3.62122084962168
C          -3.38899189971434    0.22262079662344   -3.82477683159563
O          -2.89957244050464    0.75023613615884   -4.79164418468278
C          -2.74723285110411   -0.72911887060108   -2.87459029499821
C          -3.67328368098535   -1.11452586197605   -1.89348265212556
S          -3.01771127515436   -2.19994565871403   -0.76122292775057
C          -1.48192899593334   -2.18236887174244   -1.61884661375166
C          -1.50828426010111   -1.33061732263007   -2.71533566814861
C          -0.45251618353820   -2.97274794809320   -1.05711175449312
N          -0.61508407263549   -3.41900503079354    0.18294720288027
C           0.51158249234632   -4.08667843062906    0.49016107530809
C           1.45613362480548   -4.07921715866148   -0.63217087346831
C           2.67607593020242   -4.81953732246191   -0.27825279294187
O           3.66890406547055   -5.01155068565504   -0.95171015296181
C           2.39790205324302   -5.26545288738651    1.09782627888660
C           1.06849635944484   -4.79600121407310    1.52993810393707
N           0.79849717983067   -5.21220886839077    2.78984670287381
C           1.85522905349132   -5.89947769535584    3.15633658831925
C           2.88885293360474   -5.97684251802846    2.14698915730711
C           0.84005522526406   -3.39068156703012   -1.65369315173784
C           1.25192572525719   -3.18104233978432   -2.99537042977696
C           2.47746571866631   -3.53913431752213   -3.46115392522907
C           2.93055526309744   -3.37394313089046   -4.79135735976332
N           2.18466390085852   -2.80643995637320   -5.80494342306791
C           2.92924994854316   -2.80951675757686   -6.94059303190354
C           2.92465231895186   -2.45374310310125   -8.27776363717015
C           4.18375095425526   -2.83096705076739   -8.78605519768260
N           4.92825783576620   -3.40228878823476   -7.77127063255077
C           4.19014564593743   -3.40072488676738   -6.63452987509280
C           4.18738458899279   -3.74997043099085   -5.29096329501742
C           4.70380113504491   -2.69631739079946  -10.08592320604012
C           4.04931941049463   -2.12888040919712  -11.14147428668995
C           4.64351484835298   -2.02527551242225  -12.41492057525260
N           5.86934117414709   -2.49208773959051  -12.66463556828249
C           6.11161230648566   -2.22023893181506  -13.95317743591917
C           4.97673085550077   -1.52874279613433  -14.58567975426794
C           5.27244916043143   -1.24209760492308  -15.99680808111841
O           4.57252547126697   -0.68023631381682  -16.81722611909736
C           6.62247483736349   -1.80045145498077  -16.16596709414508
C           7.10021077478870   -2.38485778409065  -14.90170989142812
N           8.34123920961711   -2.90229540959073  -15.05028200889184
C           8.65556456449159   -2.67937954990178  -16.30827086688316
C           7.63067912193331   -1.99787419504454  -17.05982238279962
C           4.02010415344168   -1.39953188239484  -13.60882459153314
C           2.72558924007951   -0.81592876948438  -13.64689772971474
C           2.21041979131891   -0.22537238894234  -14.75369356916712
C           0.92622403321652    0.37256113270313  -14.82245513439211
S           0.44047344999118    1.15392294679498  -16.31852981516082
C          -1.06045782357051    1.58118587020161  -15.63510194917313
C          -1.18953254902898    1.13965190852513  -14.31528990189707
C          -0.06816980418170    0.45874667817198  -13.85715582839804
C          -2.52264751629683    1.54652541030020  -13.78500150473345
O          -2.98531857076920    1.33483157003726  -12.69085882071338
C          -3.13779569365691    2.26917924030533  -14.92693199346105
C          -2.25501911536325    2.27279872145836  -16.00372728069935
S          -2.89253706242893    3.09183727102885  -17.35991954095410
C          -4.34566752048555    3.43161089674088  -16.48265010223621
C          -4.33941438126389    2.93845451108628  -15.21143970860525
H          -7.95683861568423    1.11607898429985   -2.73648860604889
H          -6.06222544556954    1.69388308541047   -4.45832910194181
H          -0.65954912411191   -1.11659491146029   -3.33706497369054
H           1.89974675635914   -6.34506939326703    4.13492017980127
H           3.82322515334306   -6.49285357584702    2.24766452145337
H           0.52264289826978   -2.74737715069785   -3.66358576801554
H           3.18634097814086   -3.99169983447290   -2.78106873400602
H           1.24789372779352   -2.45588068140897   -5.71101417477030
H           2.13750226194851   -1.98801384118307   -8.83438939407764
H           5.86519915769424   -3.75037941276317   -7.88441464179748
H           4.96142145353505   -4.21481675066607   -4.71502585522443
H           5.70357467010461   -3.06569317989520  -10.27243398401922
H           3.05144699756990   -1.73944797627488  -11.01140636951895
H           9.60904240244838   -2.99849789728513  -16.69246384223001
H           7.69006564418750   -1.72474622226627  -18.09499046791746
H           2.14209202822952   -0.85039911392726  -12.73796784045846
H           2.80668077525113   -0.19138097174311  -15.65652957511336
H           0.02146153103167    0.04340357152243  -12.87074652438552
H          -5.12252683975569    3.98340416210663  -16.97334027485024
H          -5.15281038605110    3.05097166692043  -14.51851291296246
