118
 SCF done       -184.860448974661          0.000599148456
C           3.27063226284595   -1.50537727840292   -0.00752898205900
S           3.82753013473594   -0.24213972646519   -1.01025854234452
C           3.15092466061698    0.95651468671020    0.07248609492699
C           2.52660186836132    0.34352645946667    1.15643580213222
C           2.58325320549762   -1.06379542222572    1.09037686088036
C           2.00709930464392   -1.96498964837915    2.14491867374850
C           1.31354849867299   -3.17933267225880    1.58709164035984
C           0.66410671803861   -3.22244711131175    0.43928143258063
C           1.02441675536818   -1.17619545849188    3.02627045567378
C           1.64713759997091    0.14149710701931    3.47156526199330
C           1.85552379665003    1.06297333391909    2.27291980312249
C           3.36943490578463    2.34201880720673   -0.11624722664092
N           3.11845301857371    3.20812934398255    0.86352381803341
C           3.62831741902678    4.38513759570643    0.46389538657213
C           4.24786863163614    4.27035938877129   -0.86348250146968
C           4.81301414136311    5.56237262762743   -1.28846985431131
O           5.40525481299732    5.82592329058407   -2.31219675953884
C           4.47947336990802    6.44054095951579   -0.15163356410524
C           3.76347979411392    5.68469572359171    0.89285371990953
N           3.43724875492313    6.49183718819533    1.93103486332189
C           3.88833083129327    7.67863247197939    1.59488898104867
C           4.54045247493792    7.71982674827020    0.30718635306085
C           4.03447202357146    2.98735039717787   -1.27907725338431
C           4.33515715643030    2.43137686405913   -2.56581354176212
C           3.48448547219401    1.65279338630575   -3.26133267779981
C           3.71363987612322    1.11128479869696   -4.57798344600141
C           2.64041360219895    0.65372820857401   -5.31009648558369
C           2.83191003114424    0.12792847803602   -6.60180038195623
C           1.92686044139089   -0.36487877414397   -7.53397089373228
C           0.44523921922590   -0.43568521068254   -7.37649527569423
C          -0.27182000838287    0.47061462616511   -8.39615683772858
N          -1.57645097465462    0.83461214049501   -7.88073190779251
C          -0.05134823155684   -1.89091696806492   -7.44635457845791
N          -1.45245139640566   -1.97562059512983   -7.06092371720514
C           2.69595798841391   -0.78075580080410   -8.68072021240019
C           2.33152992378868   -1.29239641627830   -9.87195836779316
C           3.34516785480186   -1.70280268215153  -10.88930673338440
C           4.75769859571993   -1.38246255858632  -10.53425643296324
C           5.10502055547351   -0.82517689237192   -9.35844379678895
C           4.11777393248332   -0.51822995738472   -8.39378375452731
C           4.18451449233989    0.04085099142506   -7.13367754256035
C           5.27047007119397    0.50209323073283   -6.35343219756534
C           5.03651522575798    1.02574045400214   -5.12418560133750
C           3.11068280944370   -3.18194961474140  -11.06175734000515
C           3.81409702908208   -4.13222232818925  -10.43019030747880
C           3.51463108570587   -5.51987697056214  -10.60037359383807
N           2.54548606425567   -5.92775293613022  -11.40541206373873
C           2.54163642863121   -7.27403741977563  -11.32554811443810
C           3.57714152788707   -7.75998219218431  -10.40400268102895
C           3.56230833411439   -9.22438635899942  -10.35053871976624
O           4.27667362189350   -9.97231566131073   -9.70915637209065
C           2.46723924158512   -9.57657496612403  -11.27300007701411
C           1.87132095902238   -8.35667448420570  -11.84540161115359
N           0.86578564239532   -8.66892398754936  -12.69976681332375
C           0.80628109596848   -9.97971659568157  -12.69141418707480
C           1.77745961994557  -10.60991416134834  -11.82437284630491
C           4.21542968014936   -6.63812103527568   -9.92550026402570
C           5.29316867947783   -6.49955452305433   -9.01340063412051
C           5.87391327760390   -7.55416090525237   -8.39054228535113
C           6.97134241996040   -7.45820098859259   -7.50094350737794
S           7.76435203923950   -5.93064595013350   -7.17629336798291
C           8.89410108085468   -6.70162314410523   -6.14447856298640
C           8.68944351090876   -8.04666366002920   -6.03890910350478
C           7.58807732545933   -8.48568915410614   -6.80856236684569
C           7.10401026182351   -9.90556029886875   -6.79958483428776
C           5.84147321890952   -9.98043986884933   -5.97932935078028
C           4.68053399268304  -10.39696384930244   -6.44652752853909
C           8.18724957163524  -10.83582374605766   -6.23126401237599
C           8.80429008833736  -10.27832306706991   -4.95207919033162
C           9.55099109769826   -8.98044139392861   -5.24899473480360
H           3.46868730145863   -2.52283536250300   -0.28361292330944
H           2.83732709176704   -2.30368182640537    2.77910928598159
H           1.32332153377016   -4.04579937492195    2.23465057852057
H           0.62133223769722   -2.37548019139099   -0.22546914103562
H           0.15160485807317   -4.11064518210549    0.11191949943158
H           0.75217318260896   -1.78348065486521    3.89104348100775
H           0.11526269466773   -0.97735954003386    2.45479409225611
H           2.60675119076654   -0.05479400195089    3.95462212672397
H           1.00067804147365    0.63465772590482    4.19829480773745
H           2.44194518207094    1.94269002516906    2.54059215218643
H           0.88962472697138    1.43343063951034    1.91534784574493
H           3.76000933735313    8.51500435282185    2.26018836734438
H           4.96956553326353    8.59020806495529   -0.14881498928923
H           5.25204497104773    2.78778004548889   -3.01506221523585
H           2.50926682937481    1.44261091536942   -2.83808817269053
H           1.64310472699457    0.71912318921835   -4.89889449229532
H           0.18332526717861   -0.04369934019064   -6.38882069524236
H          -0.31092689870164   -0.03966921826886   -9.37270314330108
H           0.30968261655779    1.39038533346558   -8.52356295124440
H          -2.11168083948665   -0.01465264529791   -7.72041573617103
H          -2.07537693869229    1.41206505182258   -8.54838117236933
H           0.60857945790924   -2.51037228221045   -6.81396918625992
H           0.02873693910906   -2.26681061680407   -8.46911779011104
H          -1.56192207944767   -1.70693560186603   -6.08793374865176
H          -1.78636831306330   -2.92849047729607   -7.15899096388817
H           1.29967589238183   -1.47419424609166  -10.13275129956657
H           3.09949777649157   -1.21911538658976  -11.84545740696907
H           5.49922708387702   -1.64072639752852  -11.27486710929018
H           6.13909025001561   -0.60452666581603   -9.13653192304125
H           6.27467799265020    0.43189555060733   -6.74476147034487
H           5.86182720706351    1.36901731768744   -4.52067759304539
H           2.29321928700318   -3.48396458601748  -11.70092076591940
H           4.62842541625931   -3.86598092134530   -9.77165667979082
H           0.07940874419431  -10.49366338803739  -13.29649312042570
H           1.89209124695125  -11.66614223596730  -11.67939376312117
H           5.66205620439093   -5.50159357004355   -8.81437164143613
H           5.49575370728295   -8.54963754873880   -8.57663244635276
H           9.65672132211669   -6.11523762554126   -5.67020257594674
H           6.86404118291492  -10.22220410528550   -7.81936404644506
H           5.93593637520125   -9.66162045186902   -4.94941700449011
H           4.55393899690745  -10.70422120302260   -7.47110908292376
H           3.80311864854739  -10.43998655161181   -5.82242528781057
H           8.97388055024827  -10.96443253770261   -6.97866690086778
H           7.74287124069093  -11.81389975292612   -6.03859020688961
H           9.49615936028003  -11.00773645844703   -4.52680767480927
H           8.02350148583609  -10.09258411476929   -4.21320887882877
H          10.44812379637568   -9.20517677051246   -5.83566983175089
H           9.87796906586813   -8.49939425158898   -4.32456381591136
