118
 SCF done       -199.104941644304          0.000369539059
C          -6.25208796963329   -0.18293015987635    2.61883094256254
S          -4.83067356367881   -0.30330794861473    3.54282639282120
C          -7.10128659922811    0.79959762139949    3.07963167508013
C          -8.36001367980254    1.16974126209727    2.54806439690353
C          -9.07057155789899    2.17528876022668    3.13856832451365
O         -10.27932753669400    2.63004192070547    2.73520258670858
C         -10.87598385034155    2.03393434266719    1.60965348426463
C          -8.53997780751212    2.85392310938899    4.29804104593413
O          -9.33535754141416    3.82278337451418    4.78537917948997
C          -8.89944999151078    4.54384275186702    5.91750602038384
C          -7.31969446304249    2.50219472800008    4.82127257021931
C          -6.57724148252597    1.47245186265896    4.22584976893960
C          -5.31246575860237    0.98269973524473    4.61896056104621
C          -4.54690117651998    1.43937766135580    5.70725041595316
N          -5.04302703573391    2.40746185175626    6.48947749887491
C          -4.12467342268884    2.63739386246128    7.43256367974455
C          -2.95185802948843    1.77361813477406    7.26892489401115
C          -1.96581682848776    2.05932869895589    8.32385798123639
O          -0.88105340445707    1.54083815044219    8.51328341635529
C          -2.61301801306448    3.12783390737903    9.09895937453551
C          -3.92594310761932    3.45238662992023    8.52922234464760
N          -4.52854613764633    4.43823607372912    9.23180147382525
C          -3.67642624241577    4.74032848081964   10.19094505120368
C          -2.46495154508999    3.96482327262406   10.16576141276174
C          -3.19973492036265    0.99720491303106    6.15996177639401
C          -2.37949794063008    0.01326035550256    5.54260460913140
C          -1.15835454520747   -0.32824945031308    6.01464753566114
C          -0.25213885778596   -1.27897022227641    5.43494280087496
C           0.99458365562087   -1.42108526497992    6.01373645592392
C           1.94143261022686   -2.30402875376902    5.46845686323850
C           3.24848303842137   -2.60583512286323    5.84251650126496
C           4.02073682792742   -2.07533897724540    6.99572185704037
C           4.13583984218807   -0.52348750421686    6.95745225590588
N           5.36682703131685   -0.00854350771616    7.51060345746383
C           3.40764369567741   -2.57156384904880    8.32445785348473
N           4.16235088935129   -2.06223782220508    9.46028259330397
C           3.74739133414671   -3.55674604649490    4.88073754886838
C           4.95612303655701   -4.13291317092872    4.74520327811482
C           5.23910915304665   -5.10490743584103    3.65406408868991
C           4.10857475147969   -5.31979680125511    2.69643049596680
C           2.90464170406684   -4.73191006195449    2.84573981966276
C           2.67383574746449   -3.83680941608882    3.91334542543672
C           1.58556948021220   -3.07048631529772    4.28187642766781
C           0.29505935502730   -2.92684325507829    3.72185138808783
C          -0.58797142500313   -2.06190446037265    4.28073307866634
C           5.52454871081326   -6.44911788406973    4.26632843884555
C           6.62810700268618   -7.16661599954824    4.01386426565371
C           6.85313865306598   -8.45516785400758    4.59086287585162
N           5.96788789333210   -9.02603458460137    5.39132056120424
C           6.50630919820463  -10.21080652804153    5.75051909721765
C           7.82408914438081  -10.40956160316748    5.13884496604848
C           8.38477855503145  -11.70278837659156    5.54219475690722
O           9.44710413156472  -12.20417844162949    5.22806929346923
C           7.33666002329207  -12.25206638336299    6.42431486905955
C           6.20891691388033  -11.31061420776067    6.52318087680965
N           5.23823569138153  -11.80658446939787    7.32979746852830
C           5.68917002251464  -12.97361276388166    7.72691343251332
C           6.99192589796015  -13.31391641220117    7.20006728677170
C           8.06738807174088   -9.28226045750327    4.38527176676109
C           9.17605905658999   -8.91249159619853    3.58460988322750
C          10.26553241235728   -9.70893362526627    3.41586408424701
C          11.41018904615884   -9.42402469208537    2.63846055288131
S          12.46162366829029  -10.76139239187194    2.26296581432665
C          11.90046915038965   -8.24730184188966    2.04678102330982
C          11.44517648440184   -6.92492691837749    2.15776145839792
C          12.06249994794538   -5.88571793966031    1.49937068434364
O          11.47898973483868   -4.67651902014557    1.71584232079984
C          12.06158276672758   -3.46592347021880    1.28703343465849
C          13.20589667280674   -6.14241761673666    0.66807808971516
O          13.74520866524723   -5.07712164281929    0.00138526824773
C          14.86362004202247   -5.29435968653635   -0.82245733082647
C          13.70214572963426   -7.41462149972589    0.58488744922153
C          13.08215213381986   -8.48058110773210    1.27285049534385
C          13.48553324182051   -9.80015936603478    1.30450108086900
H          -6.39641802008563   -0.83782434771366    1.78173016336146
H          -8.72611050199017    0.64267096914948    1.68237076926776
H         -11.82279469989233    2.55214640617533    1.46950357892197
H         -11.06605058897077    0.96825132900044    1.77360241617856
H         -10.25764412670805    2.15884037510023    0.71477810982730
H          -8.75938997701865    3.88680408024883    6.78011702214988
H          -9.69010370999471    5.26154304147599    6.12828882168294
H          -7.96475558570098    5.07460546111554    5.71712736759764
H          -6.89726694360487    2.98664678110944    5.68460844606697
H          -3.91718835052968    5.50934355892629   10.90455849897597
H          -1.64777544722055    4.05636909069890   10.85408562896800
H          -2.76388849836305   -0.45479327723417    4.65036156747016
H          -0.79837530840352    0.16698472553988    6.90706187521329
H           1.24014177018351   -0.82727492434048    6.88058966293082
H           5.04082376660945   -2.47271260166980    6.94776435158712
H           3.30904808549227   -0.07423740313779    7.51154124881488
H           4.06592260765127   -0.18434793756969    5.92032477350568
H           5.50002302299503   -0.36326216460169    8.45182034412669
H           6.16047008474280   -0.30593691680461    6.95318429298148
H           3.46843855460599   -3.66353528143147    8.33267839511564
H           2.34388812339882   -2.29601941027102    8.35355281994315
H           3.85181567202553   -1.12542684911581    9.69615145827414
H           4.01398854680450   -2.64438900361655   10.27592080811029
H           5.76750073747300   -3.94234961346787    5.43427234013499
H           6.13307550980722   -4.77667774346256    3.10585678561935
H           4.30221739614277   -6.00845913733154    1.88872300558762
H           2.11030412699036   -4.92120968061693    2.13815032429813
H           0.02722923838576   -3.50722551232932    2.85085250938201
H          -1.57222924865022   -1.95556406114895    3.85175031921889
H           4.76444883421148   -6.85601535538792    4.91639430856737
H           7.39468364807844   -6.77389822553456    3.35954545932100
H           5.10045491512731  -13.58628014384534    8.38777763440332
H           7.53157548452867  -14.21798199678838    7.40330934927124
H           9.11742517611784   -7.96506299697945    3.07314965311789
H          10.25709436413817  -10.68522092418869    3.88612190341038
H          10.61321949149374   -6.66906146396954    2.79032422121355
H          11.42947775543254   -2.68549145108792    1.71123795576590
H          12.06472896892801   -3.37953143448843    0.19872915000152
H          13.08035100137364   -3.35077950208740    1.66220332425215
H          15.72187863871965   -5.65766440876985   -0.24859867476276
H          15.10207259350371   -4.32168038801727   -1.25012935406549
H          14.63781622846930   -5.99974622458843   -1.62825995928380
H          14.57545054116592   -7.63813541717266   -0.00532606943446
H          14.32947974082230  -10.23775755342359    0.80909852537118
