126
 SCF done       -215.165557891678          0.000941218978
C          -4.52015962052830    3.78832026817380   -4.67103727359580
C          -4.64541747679398    4.38697647709844   -3.43384309805931
C          -4.55238442685996    3.61817595762575   -2.27818631060860
N          -4.59533421884315    4.31631176324038   -1.02151600867409
O          -3.95749972377830    3.86322648533058   -0.09147093266967
O          -5.23743648693707    5.34372414829161   -0.97629520811900
C          -4.35526776948348    2.23430969615331   -2.34067856297902
C          -4.25530262510049    1.65299697438425   -3.60283578507455
C          -4.32100431799608    2.41750727759914   -4.75251846220146
C          -4.31710324674237    1.37591764875666   -1.14368415327384
C          -3.27084609498931    0.46398912660535   -0.95072392720397
C          -2.11530182632782    0.38565519833590   -1.87850690879564
O          -1.67020270604769   -0.67231220957569   -2.27716873332742
C          -1.52278273049826    1.67592941010896   -2.28023183773109
C          -1.48090070556255    2.80697191763804   -1.51428344752718
S          -0.70135642398275    4.10229743951106   -2.31258219559710
C          -0.41997366695365    3.12191201326630   -3.70574014966238
C          -0.88306473400805    1.85848805819894   -3.54566116724851
C          -0.84652278027930    0.77535516502324   -4.57713801493446
O          -1.73326018902501    0.67782525969324   -5.39771958891830
C           0.31075772962844   -0.13626925729557   -4.51600597445009
C           1.34830578029032    0.04477983877798   -3.60274807971018
C           2.40741747725860   -0.84174974311975   -3.57771767450843
C           2.44199292371193   -1.91287446113517   -4.45726082478197
C           1.41318006347056   -2.09976344889085   -5.36745302573494
C           0.35284193180507   -1.21666768352062   -5.39763740396111
C          -3.31930113014696   -0.41140012461054    0.13072946453779
C          -4.35413577142800   -0.35407078907505    1.03932365479233
C          -5.39970337463141    0.55294671352582    0.86286289570196
C          -5.37602349586243    1.39218717293621   -0.24696438148337
C          -6.50341481660037    0.63631062041895    1.82606284155622
C          -7.79627706141005    0.78387292169852    1.40662938543991
C          -8.83826545721983    0.90355434475799    2.35610613563065
C         -10.20087562801359    1.07796534686730    2.19394535903611
C         -10.96656919240418    1.00513704402061    0.91401838827883
C         -11.94889562689688   -0.18192285574125    0.97248754852613
N         -12.54685472049780   -0.45058785382306   -0.32623463355413
C         -11.67392517412918    2.32602040125029    0.56641542290505
N         -11.92804428557715    2.36925902995562   -0.86137715077092
C         -10.76252481885636    1.20222462228707    3.52052980727187
C         -12.00293869225356    1.49707120892451    3.94696929765466
C         -12.36751841743764    1.43735358566134    5.39048752980603
C         -11.20695866940591    1.26813387844930    6.32088565120273
C          -9.94947960143985    1.07497152111979    5.88243864983656
C          -9.67283661143064    1.02779161229000    4.49623471998374
C          -8.50620101869191    0.87575159161990    3.77543821877254
C          -7.15908083672477    0.70775045165334    4.17198073250130
C          -6.19606996246511    0.58591196651352    3.22405810542536
C         -13.26203341622609    0.22339592934577    5.50490404000624
C         -14.39643176439439    0.16452237185905    6.18889428548157
C         -15.23733925678443   -1.03685978166927    6.19539998743762
C         -15.74324489161540   -1.58057475184788    7.38093747383228
C         -15.37059850579291   -1.00955489809331    8.70686570896588
O         -16.19728887734592   -0.68537756433109    9.53248125504597
C         -13.92334801563536   -0.91698149741909    8.96036694946090
C         -12.96451056554411   -1.63075839329369    8.29131387776323
S         -11.39843899478623   -1.38544519112953    8.92394295635732
C         -12.01690198559378   -0.32444093960803   10.13226708883111
C         -13.36113846856247   -0.15899289736734   10.03821825170142
C         -14.16514677806697    0.70843082711592   10.94787870562281
O         -14.15700109795904    0.55920191092576   12.14698557005577
C         -14.93872072613894    1.76891636722526   10.26102974254893
C         -16.12211965115132    2.22485926333398   10.83522158434395
C         -16.86338201001258    3.20661152224604   10.20637613753006
C         -16.41819853020197    3.75602130391044    9.01457245113690
C         -15.22641291643719    3.32562059989655    8.45302112481038
C         -14.48955930875647    2.33061957614244    9.06826705587979
C         -16.59321529815179   -2.67853502899952    7.32325790682641
C         -16.91857191944966   -3.25925460648217    6.11215447350089
C         -16.41492661598406   -2.73598857591868    4.92183557114553
C         -15.58357348658689   -1.62151820288853    4.98501517425735
C         -16.76021179189496   -3.31141740097139    3.61372658125324
C         -15.84317435610682   -3.27772974813079    2.56749819611890
C         -16.18929560327129   -3.78765433705308    1.32516512439555
N         -15.23846383887802   -3.71062284908834    0.24777682964655
O         -14.22605108384676   -3.06080002503465    0.43363728291996
O         -15.50266172583858   -4.28485930504089   -0.78606634615538
C         -17.43660160760790   -4.35665957573530    1.09584386691320
C         -18.34620890619535   -4.39485305773957    2.13596001549792
C         -18.01577755849693   -3.87454950587375    3.37631415633636
H          -4.57178032715434    4.38661738520142   -5.56700731995934
H          -4.79217082035513    5.45214379990564   -3.33527344167561
H          -4.11666394733884    0.58515988400551   -3.67830769258226
H          -4.20366192306905    1.93824888357928   -5.71114389666966
H          -1.87114849168384    2.94542330161322   -0.52461922374479
H           0.08227420522401    3.53867740458522   -4.55564436611788
H           1.32371088958548    0.87525779053584   -2.91290124405767
H           3.20947985238905   -0.70134152426216   -2.86801116241618
H           3.27140989861464   -2.60440984369721   -4.43053113587107
H           1.44034746455051   -2.93641363715936   -6.04978553574043
H          -0.46242598429568   -1.34393643198931   -6.09402914046371
H          -2.51712518466240   -1.12427961849526    0.25203835934666
H          -4.37127226990532   -1.03401716599243    1.87786607282397
H          -6.19453306263097    2.08072418454138   -0.40366098538624
H          -8.03150277168245    0.80364502775175    0.35250395909299
H         -10.26209228544625    0.81379751868098    0.09857724890529
H         -12.76457046256000    0.04873789885267    1.66359496166750
H         -11.40661283350128   -1.05234475374477    1.38145398501883
H         -11.82131108385357   -0.72110342544136   -0.98442158819029
H         -13.18210336780190   -1.24002857912257   -0.24396215154624
H         -11.01303808779185    3.16273316030696    0.81921898227433
H         -12.58854021097718    2.42518778888799    1.17489785478954
H         -12.44829986883514    3.20554078101852   -1.10427870983313
H         -12.48633432123594    1.55681925434675   -1.11275160118044
H         -12.81323630651145    1.71051847245656    3.26476916916338
H         -12.94817763072961    2.32252759257239    5.67822462398672
H         -11.43795466933365    1.29219701450765    7.37531821188171
H          -9.13567602069249    0.95775322983159    6.58361145713068
H          -6.91058946437342    0.68817489353659    5.22307180190248
H          -5.15992119583539    0.48353980044773    3.51055444814322
H         -12.89338656588917   -0.65264160629020    4.98753050967264
H         -14.75870712183537    1.00984362227053    6.75848597275118
H         -13.10475136495873   -2.30738063748580    7.47163067696271
H         -11.35015616096213    0.13338801364593   10.83571124172440
H         -16.45095220265736    1.78168963460221   11.76227712613005
H         -17.78909014320186    3.54776345450100   10.64498259987519
H         -16.99652074053933    4.52493009734171    8.52369010098631
H         -14.87258885396887    3.77028961408110    7.53343490546521
H         -13.55048264984866    2.00694803126406    8.64090576509825
H         -16.98393613953628   -3.08322317959668    8.24483349651815
H         -17.55266163438097   -4.13232218673212    6.09486738331713
H         -15.22518037723687   -1.16482610168383    4.07490055484757
H         -14.85191530143663   -2.87317198847803    2.70326933757828
H         -17.67250652312893   -4.74500160347240    0.11751187253675
H         -19.32352464538246   -4.82362055609910    1.97737697390162
H         -18.74956951089790   -3.88609196197069    4.16759356507926
