80
 SCF done       -159.551159674231          0.000825915885
C           1.16919861719734    4.23893891899106   -7.01426482701120
S          -0.30336523770007    3.66738626277496   -7.71831074052762
C          -0.95989692429423    3.38826165171521   -6.14615801149188
C          -0.04691637642558    3.73684155881183   -5.14909400884326
C           1.17189557562569    4.22340355711299   -5.65469181698293
S          -0.66432143603798    3.47908516224208   -3.54305645601153
C          -2.16281188203844    2.89807186470735   -4.21751254750744
C          -3.34705348654807    2.42882473594900   -3.65660310258511
C          -4.27211237292692    2.06988664454624   -4.62057351122349
S          -3.65509064369293    2.32539285350558   -6.24914923234385
C          -2.16543752852230    2.90829336062866   -5.61997672634020
C          -5.57265307853496    1.54941338567397   -4.42626222813816
C          -6.21185300317329    1.30545024935838   -3.23019879165366
C          -7.50246480528364    0.77376881735655   -3.49693202220180
C          -7.59980723158384    0.71190334670315   -4.96089783133872
C          -6.47060420651124    1.16989408814103   -5.51984149630749
F          -8.67812431622105    0.26011535703897   -5.61086108913753
C          -8.47497397703303    0.39553759239273   -2.59711796388501
C          -9.76219563737771   -0.14679846592641   -2.86397692603554
C         -10.41647625363127   -0.37637116508360   -1.66818359305300
C          -9.52701262607306    0.02972677248584   -0.57569528457690
C          -8.39305723781765    0.47654558700511   -1.13616222424811
F          -7.31917326676222    0.94227418372614   -0.48536230977316
C         -11.71595977409482   -0.90645284434375   -1.53724397785583
C         -12.35778805321312   -1.10973822879052   -0.35120564630617
C         -13.66166793761244   -1.63420848213045   -0.24675315515395
C         -14.42804765650424   -1.85550543661950    0.90891627954941
N         -13.93872977981525   -1.58417670306739    2.21282311839383
O         -12.73362398973083   -1.58376249946856    2.39412266585531
O         -14.75220098896411   -1.35898421826322    3.08964978059112
C         -15.72844281373638   -2.35527281308238    0.66569871816676
C         -16.68151727595249   -2.77666752046066    1.73012394240419
C         -15.97720973164656   -2.50527823772632   -0.69097661990077
S         -14.59386650973841   -2.04352628729488   -1.65062694126960
C         -17.14143368050106   -2.95334953464903   -1.37391730601507
C         -17.16794795123539   -3.42230221222096   -2.66871299933493
C         -18.50579291766141   -3.76066374031557   -3.01932730262638
C         -19.30038323727926   -3.42469995585791   -1.83872151616463
C         -18.51145896577637   -2.95256998870496   -0.85899685023428
F         -20.63053329418518   -3.56911982626248   -1.77275940569275
C         -18.97286093170285   -4.29571444858635   -4.19959919994268
C         -20.30490573323565   -4.64951671087957   -4.54284981985946
C         -20.32326285652164   -5.15581358268731   -5.82673186039366
C         -18.95001684392347   -5.13281877888196   -6.34506532775491
C         -18.16765862488066   -4.62660965618745   -5.38284517532999
F         -16.84438557338912   -4.43623471451586   -5.45233876550333
C         -21.41375735010561   -5.63555091704436   -6.58955525209668
C         -22.70341411709249   -5.67515301442161   -6.15654903828866
C         -23.80067950128393   -6.15387286970157   -6.91103447115422
S         -25.40170119981756   -6.11936810738463   -6.17741539734154
C         -26.09820169586225   -6.79668406004325   -7.59595594045417
C         -25.12588685750825   -7.03152384266366   -8.57748054040919
C         -23.83632779248999   -6.67122886573428   -8.19390331591010
S         -25.79320626090832   -7.71873833465590  -10.03403284403483
C         -27.37863758635505   -7.68695454210405   -9.31777374209524
C         -28.65564327652082   -8.06958785069796   -9.76664857097824
C         -29.59922059300208   -7.84232638091543   -8.81502352604502
S         -28.97165058616834   -7.16051038351004   -7.35442642883377
C         -27.37922947875439   -7.17126139150848   -8.02093656887080
H           1.95794964269316    4.55760228261852   -7.66618788410442
H           1.99766799942355    4.54113755073168   -5.04621644664667
H          -3.53074878246213    2.34721709249191   -2.60209443336695
H          -5.81448971388028    1.48059373160489   -2.25097274001195
H          -6.23692811804006    1.25277557634986   -6.56354095060535
H         -10.15815377381731   -0.34498218638088   -3.84076764124885
H          -9.74946406265726   -0.02925684067935    0.47114408566110
H         -12.22470804994115   -1.16494609950007   -2.45883206061667
H         -11.85940392659627   -0.87378418196983    0.57718978234713
H         -16.14819961782169   -3.07358612749493    2.62975827124708
H         -17.28994463557877   -3.60816359745408    1.38506074332893
H         -17.32960873282380   -1.94531284257094    2.00745547660004
H         -16.31397459015793   -3.54298340525680   -3.30628707820006
H         -18.82873327927833   -2.58899890488237    0.09665774618567
H         -21.14786192295010   -4.53283393375194   -3.89180115103270
H         -18.65588820243482   -5.46704570986399   -7.32109449418762
H         -21.18056640880663   -5.99077625480457   -7.58402789038448
H         -22.93531053811622   -5.31872705391536   -5.16285743426664
H         -22.97126102165726   -6.78181006344033   -8.82008880768815
H         -28.85855714611450   -8.48758867846099  -10.73516806924286
H         -30.65184636644022   -8.03517969186886   -8.87794328162313
