130
 SCF done       -212.474430558830          0.000985513511
C          -0.54616504128712    3.11436572937038    0.10357097312532
S           0.28074157301469    3.35578276257610   -1.37351623243955
C          -0.33890172061170    1.88969727376049   -2.07722901306467
C          -1.16885014631629    1.24668962974446   -1.16359644094898
C          -1.27335120435570    1.95378029637319    0.08107352520025
N          -2.02630587279859    1.47425559763016    1.11245422947939
C          -2.62234317480251    0.34118993033323    0.91246096094079
O          -3.37895316419897   -0.21578083850818    1.85319287358978
C          -3.48439904478397    0.50377541003201    3.07775359547637
C          -4.41066931358518   -0.26707390541661    3.99913361293319
C          -2.51783264017056   -0.38278150981802   -0.35049365421533
O          -3.17442992719252   -1.53839667721097   -0.40755196305271
C          -3.18249629872823   -2.22796163232540   -1.65301721336498
C          -4.18129951155545   -1.61226545812134   -2.62191426694492
N          -1.82552302392061    0.07028623516073   -1.35284669579382
C           0.05799452527498    1.49481631156261   -3.38930010059000
C          -0.46513074592319    0.40918677815885   -4.04227092328928
C          -0.05970429660894   -0.02591217949180   -5.30892945748440
C           1.02357927412544    0.65284802465904   -6.03569303519568
C           1.66164773861275    1.75594761964183   -5.59319582359477
S           1.30960926870833    2.51968345521228   -4.09769418759171
C           1.20315196414856   -0.09858845872611   -7.22776867308478
C           0.30609604628404   -1.16762342191790   -7.25359291433802
C           0.41724674004842   -1.91532898176199   -8.44905617885783
C           1.37907102991690   -1.41629297457877   -9.26782018702800
S           2.18757066114115   -0.02069835165493   -8.63564127282898
C          -0.49387550271961   -1.12895464945814   -6.05637721931498
C          -1.55037725354445   -2.01956155732839   -5.70745115643100
C          -1.68516845383180   -3.27868072642462   -6.17268251899555
C          -2.77596946213124   -4.16257709480451   -5.83466356613055
C          -4.04329341217310   -3.69145378093394   -5.59015896961083
C          -5.07217009302517   -4.57960035104779   -5.21062635981301
C          -6.40299813788633   -4.36024859896966   -4.88863658697328
C          -7.11575652817667   -3.04680676881293   -4.94865172678451
C          -8.08174108866822   -3.03110988734235   -6.14729756870250
N          -8.49339739330665   -1.66888215910180   -6.44955365396897
C          -7.79169143910230   -2.65625241817176   -3.61292550867245
N          -9.14411509454847   -3.17891663501219   -3.46001240873981
C          -6.96477215180269   -5.64245290185307   -4.54456364449397
C          -8.19471866776265   -5.99198615967954   -4.12222718288563
C          -8.54314908409789   -7.40877819118453   -3.82107935583664
C          -7.41282030971769   -8.37989359487882   -3.97475845909145
C          -6.18800539501241   -8.01122443686600   -4.39181971955814
C          -5.90924210936528   -6.65572106028628   -4.68755662305586
C          -4.76544633368637   -5.99985084869552   -5.09088470187949
C          -3.46264362122766   -6.46156610997178   -5.39412852926616
C          -2.51017763330190   -5.57086639006717   -5.76313748619017
C          -9.65771645477599   -7.83965357027344   -4.73889381012762
C         -10.82457489651683   -8.32815737796897   -4.31135968357219
C         -11.90053269255464   -8.79902802647316   -5.14324381024405
C         -13.03776109899972   -9.32886540816304   -4.59964332096049
C         -14.13315112155436   -9.82122562478395   -5.32134350696622
C         -14.16989115423830   -9.68563497769136   -6.78651335503233
C         -13.15197812575084   -9.20687021454451   -7.53186852843681
S         -11.65822881481016   -8.66639422869519   -6.88155155078523
C         -15.45299548093448  -10.15572918256987   -7.17772903174237
C         -16.16249298562424  -10.56157450941593   -6.04997727871140
C         -17.44618154808818  -11.05062176251190   -6.37583140948820
C         -17.67545892584373  -11.00058825447939   -7.71400136890250
S         -16.34849185587629  -10.36839529574649   -8.63175783694073
C         -15.33883580501712  -10.38346953570602   -4.87946708044812
C         -15.76604821666447  -10.75284590408052   -3.57512341222200
C         -14.96658739597569  -11.00288914734954   -2.50929784752232
C         -15.43575185114910  -11.33589227357322   -1.21339728472097
S         -14.28047441129412  -11.65213680145472    0.05141239171315
C         -15.48966838185438  -11.92120651766207    1.23215333515007
C         -16.74297632931937  -11.77835442928006    0.69662096854241
C         -16.72444736124413  -11.44712569829351   -0.69915651589128
N         -17.88269107755345  -11.27551133678075   -1.39023490617560
C         -18.98878636141478  -11.40862507360932   -0.72304249782428
O         -20.18125781787480  -11.24049854546737   -1.29673515762502
C         -20.19910971762784  -10.98046899385615   -2.69479871818772
C         -20.01550642286583  -12.25733341303820   -3.50501281189044
C         -19.00449496237302  -11.73850863818875    0.69781773973788
O         -20.20040857550725  -11.85280546787549    1.26856948919036
C         -20.20093494208711  -12.18059113386592    2.65440454051295
C         -21.64290520704631  -12.31083469416221    3.10889797383983
N         -17.91653441641910  -11.92097547423948    1.37846927749685
H          -0.45185800170844    3.81997009839523    0.90260400978373
H          -3.87007777467535    1.50800919093951    2.86914947220644
H          -2.48491955462083    0.61346398519611    3.51357265992308
H          -5.39135301941848   -0.36803417827112    3.54328722039284
H          -4.50799831362982    0.25866882930957    4.94435789260386
H          -4.01134835947931   -1.26033059376712    4.18171922111101
H          -3.47186134501016   -3.25075322893117   -1.40194324503594
H          -2.17462642403454   -2.22331173720995   -2.08053012019553
H          -5.15313094100949   -1.52250986580455   -2.14248213121699
H          -4.27765735578699   -2.25388588984116   -3.49163962584078
H          -3.85039640588919   -0.62301949715768   -2.92963198169672
H          -1.22726439206168   -0.14275340217250   -3.51153491992212
H           2.44651125218980    2.24036203189983   -6.15259882720258
H          -0.18598839975081   -2.76615883154209   -8.70793747185262
H           1.67811072069797   -1.78333153853661  -10.23045915371934
H          -2.26602440081094   -1.64634949351334   -4.98696743973145
H          -0.89845241806725   -3.70256695010338   -6.78184804725891
H          -4.25910070318419   -2.64128332085014   -5.72565011367779
H          -6.36849018213426   -2.27390089857623   -5.15120014477176
H          -8.91728306985851   -3.72046094193590   -5.95338933687327
H          -7.53856651716174   -3.40466984678316   -7.01989037270290
H          -9.07217229847774   -1.29204937222362   -5.70701761223136
H          -9.03513718739456   -1.64440660429902   -7.30595981338411
H          -7.76384782851375   -1.55813329058447   -3.52574267926468
H          -7.19013843510950   -3.06944726080935   -2.79912939951709
H          -9.79148565539783   -2.67529580074689   -4.05699190240076
H          -9.45384617867481   -3.05225889029691   -2.50289581729276
H          -8.96920268406193   -5.25113813609514   -3.97966741182460
H          -8.92017824348437   -7.45856191481741   -2.78954594678150
H          -7.64543925033638   -9.40975172565928   -3.74882717456956
H          -5.39845934849061   -8.74261508199413   -4.49320493218070
H          -3.24424675729391   -7.51805996962336   -5.33186189967054
H          -1.50884786634720   -5.90540240542708   -5.99538914266331
H          -9.43861126257565   -7.76011189579678   -5.79438196962555
H         -11.01303553202542   -8.40460161995855   -3.24713877342510
H         -13.09421180428163   -9.33936455121223   -3.52062931852583
H         -13.20359115969871   -9.13663055359710   -8.60710314664498
H         -18.15977046554788  -11.42002401719324   -5.66302457813919
H         -18.55760237110139  -11.30411208463870   -8.24338399772681
H         -16.83114489884136  -10.87997810737839   -3.44039669990612
H         -13.89115357819292  -10.98993610394884   -2.61468353187265
H         -15.22307281323927  -12.16255291800424    2.24017912886904
H         -19.41645989424003  -10.25431514424986   -2.93872772831356
H         -21.18258028772057  -10.54297714379934   -2.88135452879757
H         -19.01556264434072  -12.65675921621360   -3.35335057404180
H         -20.16448597147156  -12.04656283443521   -4.56067440012110
H         -20.74242577029608  -13.00263162955398   -3.19142589879989
H         -19.67575077766116  -11.39233312472428    3.20650508555666
H         -19.64764166671943  -13.11563635954887    2.79944777653696
H         -22.17181752101888  -11.37651276127143    2.94254441283309
H         -21.67327202837525  -12.55525431293106    4.16672117507054
H         -22.14201233426998  -13.09524392185567    2.54660017201534
