112
 SCF done       -186.586175191423          0.000596154513
C           9.98075783394815    3.07801580168433    3.02013691660097
C           9.60826033927806    3.62691477829607    4.22174522944609
C          10.38149259199559    4.03310160187793    5.33985663017838
C           9.74791711383766    4.56191070922494    6.42257717694842
C           8.33725555021900    4.71198925005970    6.45461517199108
C           7.55329050231482    4.33233299292753    5.39944789239725
C           8.16151700068486    3.78319012394629    4.26002890247700
C           7.61481478926997    3.32276689500898    3.05151665316220
C           8.78441878263104    2.85086837003229    2.21102068853170
O           8.73604365574782    2.37954167935401    1.09151330622455
C           6.28100541052091    3.30693806494636    2.68785493356669
C           5.79789338904827    2.86253632325771    1.46661966255490
C           4.44033499107565    2.89698362984802    1.16204237813027
N           3.51604739784913    3.34473981800163    2.03951677659519
C           2.34918520704744    3.26007893582749    1.41666511675781
C           2.48889437225167    2.73083912645017    0.04774237030676
C           1.17508569985569    2.66080334784752   -0.60762325534141
O           0.91415494902142    2.27130711536537   -1.73483531244919
C           0.26425343493715    3.16577506454472    0.41908966996350
C           1.00231725151220    3.52158270498324    1.63787867578231
N           0.16996330740710    3.98712882527640    2.58739971352686
C          -1.03347192155583    3.94462496609210    2.03952338254177
C          -1.04557878981417    3.44476800840749    0.69563568422563
C           3.82885325990595    2.48885969199140   -0.12783845865514
C           4.55252776734478    1.99210632834979   -1.24965175404849
C           3.97261365216788    1.71791566376784   -2.43996341559003
C           4.64460306286365    1.26861651298099   -3.63021149578314
C           3.94561450705290    1.27938328179706   -4.82529110027151
C           4.57147026481580    0.89762393467420   -6.02228141471205
C           4.10662759898418    0.84124711477802   -7.33632940424860
C           2.74893826953964    1.15737960191231   -7.85435479795153
C           1.68231666281490    0.24985223428959   -7.20346656765382
N           0.58869703177846    0.07054037995789   -8.13414517635822
C           2.40497209753116    2.64807052687290   -7.67450130784984
N           1.16408928949908    2.96184387061168   -8.36543979644646
C           5.19270963341523    0.33772970461185   -8.14304767172593
C           5.26571888080350    0.03795916261084   -9.45524862730246
C           6.46781035633900   -0.62476442521293  -10.02658814481329
C           7.65986170900252   -0.64562902317046   -9.11968928687110
C           7.57338919944053   -0.33150890043264   -7.80963351925588
C           6.35193870819080    0.12288423352739   -7.26648759326562
C           5.95930087978691    0.46400331045867   -5.98144728467640
C           6.64610154774055    0.43652834526876   -4.74985317319490
C           6.00701101572475    0.83139698602805   -3.61646372949040
C           6.17434069308155   -2.10003758941250  -10.23139876977242
C           5.42005479875251   -2.79471881955897   -9.37017175729975
C           5.13085864379392   -4.18836416612797   -9.47712254002498
N           5.56414152717250   -4.96117214719390  -10.45457405504324
C           5.05438827052542   -6.19274427822747  -10.20551384762176
C           4.24129603243087   -6.20544413551472   -8.99780445182161
C           3.69718287946638   -7.54460069364161   -8.75041934358614
O           2.97674612882006   -7.91396019765834   -7.84300252039882
C           4.23925620444073   -8.32607246495383   -9.87885733534395
C           5.06207955260532   -7.46509458342657  -10.74422676955149
N           5.56650768759256   -8.16941119098241  -11.78343990774240
C           5.11482480366974   -9.39325062142041  -11.61871845713353
C           4.28127720293705   -9.56004233458575  -10.45020012745186
C           4.27810034550763   -4.91089417062519   -8.50021413622403
C           3.69581705403966   -4.32159266248599   -7.37409590662295
C           2.87405615533146   -4.97911516155703   -6.48125929507589
C           2.30305166750143   -4.34987558026562   -5.38213576241562
C           1.43119265264950   -4.90051866203245   -4.43170911075388
C           0.95146573876298   -6.21637925373188   -4.30804193951780
C           0.10170389556628   -6.51954609678798   -3.28164788947440
C          -0.28137415892009   -5.53914758516977   -2.33439993189845
C           0.15971016614890   -4.25104956182427   -2.42161702020474
C           1.01206508265134   -3.88103423165230   -3.48695571997020
C           1.59473231450931   -2.66215663425640   -3.82496817176667
C           2.48518323625138   -2.90893694135872   -4.99352060771113
O           3.21055544630840   -2.08346633038120   -5.50826545316928
C           1.48850999059631   -1.34167789728796   -3.31135328349960
C           0.54265104358072   -0.84765544161794   -2.49774444301325
H          10.97457417900511    2.84034501669026    2.69099251298409
H          11.45438678603578    3.91759523305258    5.31275594758861
H          10.31734917698846    4.87903787859471    7.28384980229613
H           7.88529586756603    5.13724315251546    7.33826691388627
H           6.48118839621827    4.45117271178800    5.43485539030984
H           5.54538976995635    3.67310090638103    3.39322976867421
H           6.49683693645988    2.49298123652487    0.73255680777512
H          -1.89243256681752    4.26943634691229    2.60071620083550
H          -1.91316807947214    3.33135517350631    0.07552446240731
H           5.61740181806001    1.86873930886232   -1.11328161910630
H           2.90726258161029    1.88382872560473   -2.53858774556825
H           2.91529427558852    1.60063101614675   -4.82889063496121
H           2.72030490901501    0.93902317578451   -8.92665070149083
H           1.37158201848556    0.68480306923770   -6.24224003188461
H           2.12522749420059   -0.72955751589523   -6.99671136824685
H           0.17482076876919    0.97786662386300   -8.33055546478394
H          -0.12142646481148   -0.53825640779914   -7.74394169129957
H           3.26124678394074    3.24886923648006   -8.02738612449188
H           2.25982036837056    2.86930733850954   -6.61529769671248
H           1.29435805261471    2.89320676717260   -9.36994198605032
H           0.87032714171410    3.90888739752235   -8.15369822103257
H           4.42614727458745    0.17054803543817  -10.12313660825422
H           6.72297189285314   -0.18147769121860  -10.99491068488757
H           8.58173860144677   -1.00220137319927   -9.55139665371574
H           8.43948892206713   -0.40638292765748   -7.16848789059206
H           7.67171464738535    0.09954393620429   -4.71756682725112
H           6.53217225328753    0.80101723250890   -2.67487177437755
H           6.64523143422452   -2.59675183767608  -11.06588731612099
H           4.97807933613079   -2.28257536959802   -8.52748533635858
H           5.37255869382447  -10.16603481009757  -12.32186161106931
H           3.81725626986067  -10.47536077117042  -10.13918363502744
H           3.90114653963918   -3.27824626490507   -7.18990268953233
H           2.65141209854165   -6.02572721639273   -6.64927857523996
H           1.26123325369702   -6.96892426613900   -5.01678142876448
H          -0.27876495435152   -7.52371476483006   -3.17044502970036
H          -0.93206475286454   -5.83215304586861   -1.52366637766127
H          -0.11832507180060   -3.52397743657790   -1.67586823102485
H           2.25504692823791   -0.67390049457833   -3.69044809281678
H          -0.28573281343005   -1.43956868855795   -2.14933999572744
H           0.55918592394904    0.18631412744049   -2.19910185274881
