116
 SCF done       -176.704915065312          0.000507761395
C          -7.21063796079524   -5.13150708765971    5.10737114113310
C          -6.82474331978210   -5.06690083265866    3.84622878079892
C          -7.84192141915639   -5.68821563846318    2.92729839183236
C          -8.81598132876040   -6.42117761878306    3.88173612810141
C          -8.54042462659541   -5.80101451250981    5.26682752803232
C         -10.22220963464398   -6.21016703593709    3.29400698474738
C         -10.12621561191858   -4.88383889459364    2.51409944148800
C         -10.76212919927854   -3.88840530431034    3.45135527281259
C         -11.41448386064430   -4.49206171952968    4.43014978228312
C         -11.33817312827979   -5.98799013613958    4.32562316813133
C          -8.67413774458325   -4.65366954445398    2.21961846069755
C          -8.25448287605224   -3.61738086086898    1.47732774277065
C          -6.92356651840805   -3.28860250558818    1.07722273055264
C          -5.74915006685972   -4.15716014889088    0.92462657209336
N          -4.68579953256282   -3.55535314873323    0.47356573578454
C          -5.05301023582009   -2.25128220788441    0.29192067687850
C          -6.46178221109512   -2.06219835360936    0.65959800606070
C          -6.85644897728590   -0.69912534429198    0.42497901715575
S          -8.37217498065185   -0.07315418974190    0.58031685896681
C          -5.65884390831663   -0.05457071512626   -0.05492097477504
C          -4.57378060452743   -1.04867150108832   -0.15493052397932
N          -3.44630709006155   -0.48068478950061   -0.67283846512761
C          -3.76663357703324    0.75633640775800   -0.91975989304225
C          -5.13866876387715    1.11779914422328   -0.55534717055458
C          -5.67803882493078    2.44821162613505   -0.65966035552910
C          -6.58486906808995    2.91154543176962    0.27238762537786
C          -7.02211987967908    4.24995291069668    0.22788729196666
C          -7.83776212570424    5.00084185540203    1.07613947263845
C          -8.52641925656586    4.65150624040342    2.35190350131228
C          -9.86740930661300    3.92696823976303    2.08391056793934
N          -9.63613592326861    2.63564778812409    1.48308101465148
C          -7.66345717874506    3.82838724623070    3.31962607250093
N          -6.42440876435874    4.53693862272213    3.59726244392324
C          -7.94140263221768    6.31745347931742    0.48851625384237
C          -8.61933866186052    7.41237270335394    0.88358406426902
C          -8.61608520770142    8.66253624643934    0.08382805900684
C          -7.72633659253883    8.63435780111232   -1.11965035239404
C          -7.05188231468291    7.53231692020704   -1.50039270640314
C          -7.13371787461381    6.34596737554418   -0.73457100574289
C          -6.56915005604226    5.09226918359277   -0.87477569411999
C          -5.67512708639248    4.57473328234018   -1.83811478038560
C          -5.22278848103258    3.30111526127358   -1.71499131562295
C         -10.01166166124581    8.97084529756150   -0.41644470680662
C         -10.84748061547460    8.02590929771416   -0.86249005868582
C         -12.16926079853677    8.26864447755180   -1.35105076910670
C         -12.99672115857321    7.20948662408019   -1.93137995645494
N         -14.18402034846896    7.58843406842151   -2.30630668974285
C         -14.24642367890985    8.91559679960448   -2.00044766314753
C         -12.98046481990262    9.38229081853900   -1.40654592913412
C         -13.09962591874894   10.78151545395457   -1.06826726184187
S         -11.96270070737252   11.74012735890198   -0.35853179539740
C         -14.43647553484143   11.14679331520886   -1.45913042776131
C         -15.11594883906549    9.97155148132862   -2.03294301039091
N         -16.39541882509698   10.27544696700235   -2.39360646086938
C         -16.55491800741517   11.52443662867220   -2.06675127753624
C         -15.37589313750016   12.15842006247974   -1.46550018167122
C         -15.34124722838799   13.51617683635122   -1.03218673027582
C         -14.25018419081492   14.22653655020423   -0.66637126112266
C         -14.66568940913552   15.62718812124280   -0.39021825605230
C         -16.13011918178379   15.44083443331907    0.02302033915996
C         -16.60407713762359   14.36983915865422   -0.95220131419880
C         -16.61717061174602   16.87470616055488    0.17467274903373
C         -15.37566359953572   17.52675935858795    0.86633981539750
C         -15.80702023152495   17.62873830941981    2.30145305240863
C         -17.09012982521494   17.35587857419268    2.46175397786304
C         -17.77638711616559   17.03282090371280    1.16770964429944
C         -14.18388153026300   16.60748833966034    0.63024624713779
C         -13.00616912615870   16.66867756636084    1.21961235284928
H          -6.67766136139696   -4.73589697017113    5.95495972255226
H          -5.92746301441321   -4.60499465434304    3.47400358412066
H          -7.38551706799803   -6.36783933924226    2.20128431138392
H          -8.58046779088138   -7.48706311200893    3.92462960345122
H          -8.52798391560663   -6.55192654540743    6.05827826038725
H          -9.28405955300958   -5.04561516706893    5.52992258782856
H         -10.45531148812314   -7.04537304045185    2.63041127317669
H         -10.69552986243405   -4.89631302824217    1.57649475946632
H         -10.67634365850974   -2.82956467001185    3.28428143910327
H         -11.97257284092083   -4.00845424103320    5.21398259904040
H         -12.28960860822688   -6.38000492910494    3.95471254020919
H         -11.13445523582095   -6.47306179288589    5.28015538916287
H          -8.99820322247478   -2.90282812626255    1.14129621756362
H          -5.72211820866077   -5.21506376759037    1.11417089515374
H          -3.03276791898747    1.43578879272624   -1.31811590604865
H          -6.93821165268302    2.24857183667883    1.04493723865164
H          -8.76382055795390    5.59069742839129    2.86105651494521
H         -10.50205883047765    4.59557207612337    1.47477472410405
H         -10.36759915519217    3.76960297370170    3.04332223842292
H          -9.32872859898220    2.72407453207957    0.52198442806226
H         -10.46451112042412    2.05562986982843    1.50165221671416
H          -7.52640851958262    2.81718503876119    2.91603670903087
H          -8.20625746441258    3.73422183245859    4.26473010238536
H          -5.87421676864904    4.62151745057132    2.74820535369044
H          -5.87189045116157    4.02530976607990    4.27614960096711
H          -9.22848221985702    7.42162831275590    1.77704791942095
H          -8.31533580389413    9.49229381773931    0.73789031819876
H          -7.68541341656045    9.54500392909837   -1.69697043247283
H          -6.43496898285256    7.54373662066527   -2.38731285889633
H          -5.35400564903202    5.20210168056103   -2.65653337960306
H          -4.53612536804602    2.89396160962767   -2.44178805507248
H         -10.30093786306815   10.01116676077673   -0.43809512049474
H         -10.53572111374953    6.98767966857394   -0.86736165796066
H         -12.67859656310708    6.18911565165156   -2.06315203844562
H         -17.49066533901507   12.01957576061873   -2.25950746520601
H         -13.23656491783577   13.87199845987881   -0.65468063600146
H         -14.64421383629225   16.15623003582288   -1.36082132013833
H         -16.12711861304248   14.99301453136286    1.02526780022734
H         -16.83361782669775   14.79403262681991   -1.93446851397365
H         -17.46852896106589   13.81024552773542   -0.59824412354609
H         -16.83617110388627   17.32141841596690   -0.79697663953760
H         -15.15292610097861   18.52599180610579    0.47450640892710
H         -15.11105886305000   17.90079291938746    3.07505348924211
H         -17.63015370490011   17.37096287560587    3.39306674303306
H         -18.44233748335080   17.85085895087850    0.88011789734655
H         -18.37951674889715   16.12562838305188    1.23776165802966
H         -12.77307312725197   17.42304354716165    1.95174785802303
H         -12.22594987514469   15.96331725512907    0.99078576730657
