114
 SCF done       -213.600951617478          0.000876623335
C          -3.67005970243140    4.67459036543911  -15.64784171310782
S          -2.53960626175309    3.39252521104778  -15.61345775665797
C          -2.41134636482489    3.49000683316876  -13.89305139893272
C          -3.23503584638185    4.49414862146258  -13.38358013346753
C          -3.95874957284576    5.17838016866912  -14.40417661482299
O          -4.83586859253486    6.19572394068786  -14.28805130880546
C          -5.11471761914168    6.71262387090219  -13.00535942287571
C          -3.28043897506443    4.73387906356755  -12.00135922630454
N          -3.29138638980954    4.88543963623456  -10.86285592897421
C          -1.55363732341944    2.65356124742634  -13.12569372706781
C          -0.76349079351634    1.70007799169285  -13.65556041819160
C           0.11440407819608    0.84958686366246  -12.89331405715858
C           0.82936858468185    1.27259759268902  -11.76071341600862
C           0.98225480745367    2.61929586369762  -11.16443650900142
O           0.54724782742693    3.68630807381530  -11.51480339543930
N           1.83000186148512    2.45902161936355  -10.05545053966360
C           2.28057442846877    1.14837804578760   -9.91872590861291
O           3.02692636548145    0.73149052263512   -9.07109731041369
C           1.65202944320290    0.40273228682561  -11.03626062353230
C           1.82897577394134   -0.92227222019588  -11.38516539677051
C           1.15696093107545   -1.34716476153671  -12.52451732534776
C           0.32994661351520   -0.49826865059116  -13.26298405657883
C          -0.30413380928579   -1.14737364768280  -14.41998116401009
O          -1.07269689774955   -0.68655269310898  -15.21278603177138
S           0.24951538981951   -2.86148656027518  -14.51311869104156
C           1.26454123172437   -2.72382240548951  -13.04274276371337
O           1.90658932502990   -3.62386244151383  -12.59118033354881
C           2.11490036213912    3.54885724025395   -9.23722691945526
C           2.96876278271537    3.54379077164235   -8.20858850870699
C           3.23779621335052    4.67801660853825   -7.35024787907160
C           4.33216293475617    4.62468596350731   -6.51279854693858
C           4.63636044185031    5.70066348760063   -5.65610117306700
C           5.66423232935623    5.90788694272150   -4.73626271685874
C           6.81383045138418    5.04264583357876   -4.37217359117055
C           6.40545652442306    3.98052543175573   -3.29723608356124
N           5.35352937193003    3.07144321533343   -3.65065355126240
C           7.49820569553507    4.36955473707716   -5.57216958449182
N           8.84384501555227    3.96859256538256   -5.19581459955520
C           5.42332726524369    7.19700719142026   -4.12668987420634
C           6.07596279147511    7.85153765013946   -3.14672059983893
C           5.67943835561820    9.22833760529305   -2.74183170716205
C           4.45325839386725    9.75655176906322   -3.41257844720019
C           3.78249081228530    9.06385300553193   -4.35409067522884
C           4.23023616102426    7.78132661118512   -4.74474330614558
C           3.75623903194903    6.85986776300811   -5.66507743587733
C           2.63885579126340    6.88797297632293   -6.52436059307857
C           2.39218160265690    5.82969533894900   -7.34172915636489
C           6.86691766814970   10.09492450772360   -3.08849359399436
C           7.47626558810576   10.91663012834069   -2.24444472120961
C           8.68595508936967   11.64331789848075   -2.61326810476853
C           9.80196701583821   10.98637199734326   -3.13237532806985
C          10.04121900340715    9.53784610696069   -3.32626586997293
O           9.29796569405585    8.60705619901965   -3.11900779542837
N          11.34474202785111    9.43380363888343   -3.80801276037072
C          11.96277166429326   10.68470371646503   -3.96069785509837
O          13.07431140658811   10.85221237093560   -4.38812565567650
C          10.97172475958356   11.67397031313951   -3.48766205129332
C          11.09224818445813   13.04348791952678   -3.34722039188313
C           9.99239916419919   13.70697229518400   -2.81327231040694
C           8.82271980277107   13.03000165353391   -2.45062827529900
C           7.75924453680367   13.89090878942952   -1.92043422403262
O           6.66219310555751   13.57364029794723   -1.55947442275246
S           8.35109795145725   15.58999825026592   -1.88927103319519
C           9.95588652879504   15.15959831410135   -2.58233785578284
O          10.81504205705624   15.96054870240589   -2.80006023845597
C          12.01818912131457    8.25873959264981   -4.13279684178369
C          11.61639633855930    7.02784902035547   -3.79148996850231
C          12.30643412097551    5.83053958499164   -4.14577678811380
S          13.69097964419311    5.78522516840385   -5.18738035935228
C          13.80500627984005    4.06385829463345   -5.07503635076699
C          12.80646138711784    3.54567031229257   -4.25304888044767
C          11.95699468959395    4.55683093249865   -3.71658868282024
O          10.91683104430043    4.44098214613232   -2.86809198228566
C          10.46801520254622    3.16353830513203   -2.46921550186397
C          12.67129792923124    2.16937789672677   -4.01085836888930
N          12.56500194401693    1.04070094367160   -3.82509667596894
C          14.86606026733349    3.42456772538169   -5.80317425829459
C          15.14711465897240    2.12262675501186   -5.84294027431236
H          -4.08254624491542    5.01440009600066  -16.57574581155715
H          -5.83057682230915    7.51677144548199  -13.16661278462246
H          -4.21569975756465    7.11465108207867  -12.53026148506466
H          -5.55900737843474    5.95480187777547  -12.35425651259531
H          -1.58525530378041    2.82007628403754  -12.05814124155465
H          -0.82140002405502    1.49998732638287  -14.71716231552305
H           2.46152059773923   -1.58837220459506  -10.82098074006810
H           1.56060821595608    4.42389560470777   -9.54806846932729
H           3.52193570390887    2.64306673909332   -7.98660864790022
H           4.95850939434384    3.74656417086432   -6.52836265518243
H           7.56894336322367    5.67271335362927   -3.88985258145853
H           6.09320449956179    4.51719957398583   -2.39701400101953
H           7.29923632764273    3.39569763437368   -3.07209478321056
H           4.49935764450648    3.55774685389051   -3.89666587223987
H           5.62007048111781    2.46219834167110   -4.41346627150993
H           7.47388233654625    5.06362949742789   -6.42954698603222
H           6.96911222701058    3.45948644604949   -5.86490781927611
H           9.39283925014746    4.78603742481871   -4.94873367607679
H           9.30403596731444    3.50684189243752   -5.97313738740617
H           6.95614971719753    7.45147545872033   -2.66468874366806
H           5.54092507474442    9.27029568534845   -1.65372274355576
H           4.14029951879210   10.74302173384601   -3.10736148725303
H           2.89853831316816    9.47613350551040   -4.81809883748870
H           1.98552037288318    7.74770223074251   -6.51964291803948
H           1.52789505320099    5.84425305082545   -7.98571532112704
H           7.21461909645520    9.99457656583653   -4.10703457309456
H           7.09419793477782   11.09061085329860   -1.24808291158160
H          11.98921896692114   13.57489657450872   -3.62220254476986
H          12.93340065233924    8.44202681081011   -4.68093390983468
H          10.71902599734898    6.87719328815464   -3.21063926284330
H           9.64471635254688    3.35369402594800   -1.78258777260351
H          11.25164879967252    2.60564113509151   -1.95151320265984
H          10.10292315397051    2.59162226951110   -3.32537223005628
H          15.48156867009878    4.11914780691991   -6.36189259408458
H          14.57779716181468    1.38622967470311   -5.30597423738355
H          15.97755996897176    1.76203896363406   -6.42368912807457
