116
 SCF done       -191.673457928183          0.000745937693
C         -10.72258330906861   -0.08808038381887    4.37425298374219
S         -10.08235541673373    1.32435824087297    3.64274171365119
C         -11.53480639150211    2.21237035921003    3.96885616091645
C         -12.46878766410729    1.41111979524835    4.62634000736233
C         -11.99213594513439    0.08468388309741    4.85628247430026
O         -12.62018300696508   -0.94863055366260    5.45912448500840
C         -13.93741329296243   -0.76318368632170    5.92629369291468
C         -13.71445528599151    1.94176456059721    4.98817413134983
N         -14.71820952096556    2.42886163138713    5.26415215539495
C         -11.71527115144596    3.56735502420702    3.58740041802060
C         -10.78441381439352    4.29802827267507    2.93078912932061
C         -10.95267058044825    5.65682063760190    2.53680075061420
C         -11.85775759405180    6.55946272774353    3.02683275459125
C         -11.59211148596710    7.84688516252015    2.43506400852914
C         -12.37714917661161    8.98321469725989    2.64236454763817
N         -13.05030707944069    9.90154891115807    2.80138470897478
C         -10.49282217751517    7.75039515827108    1.61757472708106
C         -10.06970579345166    6.38097975602318    1.60364514581766
C          -9.16748599445172    5.82770611525569    0.72034435046512
C          -8.15935491937751    6.56300163899949   -0.08250473222332
C          -7.73450215216049    5.72159908584305   -1.07501785138609
C          -8.38184862997982    4.45100614332702   -0.90276845238478
C          -9.20514905516989    4.50150580556416    0.20298575601262
C          -8.19582375604885    3.34569503396136   -1.74185948791747
N          -8.03270862783433    2.44295420430913   -2.43298465918401
C          -7.61396543906992    7.84446223470272    0.20451630715728
C          -7.55854530572792    8.40227480465321    1.43787354982695
C          -7.03967425051711    9.70303705189817    1.74977643423252
C          -6.67002301818516    9.98060586952939    3.05474555325517
C          -6.22665302952835   11.26293897503473    3.41334744898612
C          -5.81225880780708   11.80277367510516    4.63269115741099
C          -5.63718877535578   11.12145464247824    5.94648190180118
C          -6.98936112839374   10.64799358092911    6.50951751922346
N          -7.79426853007521   11.80887548168858    6.85653541200787
C          -4.62288183994828    9.96911474043652    5.84602668900153
N          -3.31690578942586   10.52199178493105    5.53039865826570
C          -5.58123399655363   13.20618513417982    4.40749034961506
C          -5.24481534597807   14.20033111800186    5.25592370726869
C          -5.26446033946782   15.61835963496265    4.80906090927637
C          -5.32214237303624   15.80632645551025    3.33034537590292
C          -5.61325818314700   14.79930107245099    2.48570933680128
C          -5.81445807647702   13.48969367078904    2.98803841131412
C          -6.20227629014417   12.30339413178981    2.39375041403479
C          -6.56369918077154   11.99146677356178    1.06451452448989
C          -6.95564359614407   10.72892966693836    0.75547356097950
C          -6.54709965807160   16.13268067099160    5.46117570888066
C          -7.75480682567546   15.78413467829883    5.01289314297568
C          -9.00365859596606   16.21914331383336    5.57724648046420
C          -9.24032851686243   17.36900244691772    6.26914946342190
C         -10.66017273735918   17.46871979781629    6.52948644246341
C         -11.27788185867071   18.50780654023330    7.23280442035255
N         -11.80094368002147   19.36450781693640    7.79215104699699
C         -11.29419483936572   16.39718842905019    5.95590358748258
C         -10.30022850319112   15.55827380242878    5.34859637034318
C         -10.51645983508867   14.33410915183618    4.75743433041124
C         -11.81605687204081   13.81774528663242    4.24494561797514
C         -11.63284614953983   12.50000790651541    3.92825916114741
C         -10.26474053353042   12.15194428614512    4.20548375848281
C          -9.58014320118169   13.26188346338191    4.65186320882419
C          -9.76243597838007   10.85607351551465    4.06343551941544
N          -9.37941948292590    9.77759738741026    3.95359982249161
C         -12.97228042322727   14.61237107882246    4.02649546978652
C         -14.18797308280946   14.10561700561029    3.69360422465167
C         -15.37369083743926   14.86703615716974    3.54045342908244
S         -16.80604734379842   14.08609731929322    2.94359351799451
C         -17.74727235897480   15.52655616011208    3.07207718062673
C         -16.97662928715244   16.58168714581140    3.56423884204786
C         -15.63175719806867   16.20891492712845    3.83667670918797
O         -14.63930101648240   16.96631067998418    4.34712360800498
C         -14.91271528865515   18.26239387392337    4.83777451615269
C         -17.50424811434799   17.87303214896938    3.72960214411446
N         -17.94121975053443   18.92913266650026    3.84623392262537
C         -19.12566595590816   15.45773051969498    2.67827112875779
C         -20.03059489748179   16.43598597870347    2.72420752286864
H         -10.14168710910872   -0.98596149685210    4.41894462106083
H         -14.23179558700984   -1.72071037066288    6.35264202216363
H         -14.62005646569325   -0.50187474909554    5.11281042555128
H         -13.98573196019197    0.00941918920457    6.69876435767022
H         -12.67689815376469    3.99756432830072    3.83204031291416
H          -9.83876476362844    3.82812964363953    2.69322584467207
H         -12.62877643451750    6.37987283139747    3.75207354403489
H         -10.09447532346165    8.53482031558043    1.00486700400396
H          -7.00028597174387    5.93233982145060   -1.83013052147900
H          -9.87098045102211    3.72010226556064    0.51400878229487
H          -7.12364987873972    8.33467218534559   -0.62788856073666
H          -7.91207998444350    7.83042802414517    2.28581038380740
H          -6.74185897689308    9.19857132496851    3.79435515454762
H          -5.21594655553791   11.84243772830878    6.65417961111268
H          -6.79996675046607    9.98082604850262    7.36688429569245
H          -7.53655385522416   10.08445647318679    5.75245691434536
H          -7.39943606540400   12.28325595915216    7.66276234784414
H          -8.73665086596620   11.52333960046510    7.09789041579890
H          -4.97389585739260    9.22784739220763    5.11289734154157
H          -4.54479239654633    9.47387361442311    6.81842137035484
H          -3.34157080576478   10.96984247057883    4.61950464994458
H          -2.61680732318619    9.78943856282043    5.50115157212552
H          -5.06343262497885   14.02209517828587    6.30599328892054
H          -4.42099373376348   16.17434087677319    5.22947294688729
H          -5.17975720578386   16.81440113290786    2.97265938818129
H          -5.69073683385501   14.97218333309703    1.42209001697220
H          -6.53602708961282   12.76447464406452    0.31032757724272
H          -7.25521366913447   10.49218822096924   -0.25413326328304
H          -6.42832201231757   16.73905059813212    6.34579390696126
H          -7.82543638574599   15.14025439343039    4.14666506214198
H          -8.52419403162453   18.11629596619601    6.55519502083845
H         -12.33626899511169   16.16553233196215    6.05662462840673
H         -12.34538804249052   11.81291748493720    3.51327940410624
H          -8.57171443798836   13.25594890196804    5.01850079640531
H         -12.86688505700022   15.68011740131469    4.11850905674155
H         -14.29969182835492   13.04083831081357    3.54210206335971
H         -13.99093241306088   18.59395818204077    5.31521017798285
H         -15.71767272829537   18.25100896121292    5.57635182843958
H         -15.17113338638670   18.94982314728762    4.02909661418513
H         -19.41903935990736   14.47992143012040    2.31571008562091
H         -19.80385547984083   17.42522801007986    3.07678336125157
H         -21.04160520815082   16.25797345764984    2.40229971241279
