121
 SCF done       -222.755574753290          0.000612927304
C           4.08539166592326   -6.80189642472039   -9.29981753964138
C           3.73307046105494   -5.46498372447210   -9.13381857143314
C           3.35202039708028   -4.65536691499156  -10.33178079815311
C           3.73531521806690   -4.87943247983302   -7.85838628432641
C           3.35648829588100   -3.44379201261294   -7.68399466304270
C           4.09330013736410   -5.64323598587183   -6.75207413171264
C           4.44143610245489   -6.96696472152176   -6.92596479151062
C           4.44165179052689   -7.56211178340965   -8.19898776019388
C           4.85078037904906   -8.95791855942571   -8.07068272904632
C           4.95909162751159   -9.84914438213770   -9.10694003966152
C           4.68098560263613   -9.53224525978518  -10.45335181215829
N           4.47488764368117   -9.34398814970130  -11.56714603439231
C           5.35363958344493  -11.19892058225544   -9.00167089505998
N           5.66627511571230  -12.30469114384834   -9.00854401941707
C           5.10757245550990   -9.20412291401402   -6.66319743366851
C           4.85263737473913   -7.95920692817214   -5.92243678333796
O           4.95932992764333   -7.77863118039037   -4.72143618966366
C           5.51640627661692  -10.39070203369615   -6.11567592790148
C           5.78120256002040  -10.73252811908068   -4.77953308736580
S           5.65914988529057   -9.70200395346333   -3.37726196389210
C           6.14685395757393  -11.00482513538856   -2.34086079458008
C           6.39244652565380  -12.17222320942652   -3.05379258608235
C           6.18864315589765  -12.01664440378201   -4.40922818667825
C           6.25031921413280  -10.82919606783327   -0.94000136047797
C           6.01415978488065   -9.67994296161437   -0.20828717903899
C           6.19009430271398   -9.84681934795217    1.16038998555568
C           6.56729330250376  -11.13137956394557    1.51418871367161
S           6.70734299245990  -12.14347603290153    0.10713311044000
C           6.81395927482297  -11.64257633224659    2.81311032253447
S           7.32341709477110  -13.28312512399987    3.06091223129539
C           7.35977642147607  -13.06898924668158    4.79084148219049
C           6.99147124013554  -11.77255899933449    5.12355891011444
C           6.69031241987349  -10.97985676241155    4.02591343409355
C           7.73037325637095  -14.15520726270470    5.61424921222041
C           7.74748334247901  -14.11998528354791    6.97455141311407
C           8.11287648293801  -15.20284059741098    7.81404405803669
C           8.04139982720957  -15.05192373771680    9.22495268298371
C           8.37598552669256  -16.11029639326071   10.15017650504261
N           8.27132973222299  -15.88762203555276   11.46860197763595
C           7.87013228932163  -14.71837112608098   11.90410741911693
C           7.54416700456017  -13.66887957449440   10.98728639526164
N           7.63696807233003  -13.86228078369369    9.69449129068054
C           7.11774697485061  -12.40661996857672   11.46802554525950
N           6.77673291053838  -11.39638162737942   11.88760651069635
C           7.76387087036655  -14.50689652048226   13.30080730954742
N           7.66894608086121  -14.30869165783040   14.42531133224726
C           8.81278384829962  -17.38089022832251    9.69646734484858
C           8.89914366877619  -17.51971298610962    8.29225997886603
C           8.55679028408152  -16.46898826055564    7.36593542995457
N           8.72212720932691  -16.86396035003084    6.10231226097537
S           9.24752927412543  -18.38052216842176    6.07748573360295
N           9.29549857716125  -18.62550935004439    7.66363293862278
C           9.14364856863934  -18.47190426576564   10.54368022200624
S           9.68845172464747  -19.97661549612722    9.85012440848155
C           9.83777988632766  -20.69521027778294   11.42688413657125
C           9.47932775382217  -19.79801205742974   12.42034210431638
C           9.09588121239783  -18.56062315168201   11.92907816627201
C          10.26820646139816  -22.03325691083699   11.58134611898441
C          10.66772368224790  -22.91569016044643   10.59434778978290
C          11.02750652412657  -24.16673673171695   11.08213930758879
C          10.90803701079832  -24.27641179544526   12.45463258814149
S          10.34214525020814  -22.78430400992109   13.15112650819316
C          11.17400081110480  -25.40545628553289   13.26804966165235
S          11.76672873190821  -26.88944761395613   12.59045066848662
C          11.76086674960279  -27.66880511296982   14.15595222268360
C          11.34507916494644  -26.77778848131307   15.13123828877176
C          11.01863646465869  -25.51998236088539   14.63745338117359
C          12.21853706866260  -29.01031552408148   14.23946164383353
C          11.98540161355791  -29.92618753414136   15.22085397313136
C          11.06322214760735  -29.75901716232389   16.27778355419142
C          10.86646739141233  -30.51119989708372   17.39739452235539
C          10.04208782878388  -29.90595482812540   18.48490839459103
O           9.31172680313447  -28.94503919508042   18.37839110445792
C          10.37161055993023  -30.67138160433455   19.69602052026291
C          11.24238580834145  -31.72312438493011   19.36111485699614
C          11.73266939249000  -32.54178991550604   20.36342460599709
C          11.34521385043731  -32.32720223066291   21.68339200439646
C          10.45622130626605  -31.29000070167786   22.00650449730920
C           9.97592616982702  -30.45801211267716   21.00091446511643
C          10.02930208687600  -31.07213903587523   23.42274651367609
C          11.88519902115522  -33.21520626489133   22.75836009465728
C          11.43735376874101  -31.73874518338590   17.91137782789940
C          11.88374816927915  -32.82442680197065   17.20422995583946
C          11.82036650042046  -32.96975442370862   15.80399727592816
N          11.75373791588871  -33.17943530002812   14.67689451294958
C          12.37126948085763  -34.00422422312101   17.80539668895266
N          12.79320699500056  -34.98381358354268   18.23044310833073
H           4.07539856454109   -7.22634593250462  -10.29068660096164
H           3.39434368992501   -5.25852288598589  -11.23438574058226
H           4.02461101162407   -3.80617974603738  -10.44874955022680
H           2.34201444353319   -4.26184003146373  -10.22259967083321
H           4.01750716133001   -2.80006324926863   -8.26341444497644
H           3.41708952336041   -3.15360841937496   -6.63871345954987
H           2.33961602524007   -3.27078582246456   -8.03506361346476
H           4.10235085762583   -5.21374986947841   -5.76136089098665
H           5.66584060397068  -11.21929458956953   -6.79752227125059
H           6.70539099931802  -13.08806576839081   -2.58345602260108
H           6.32301793594006  -12.80011339088465   -5.13441428233271
H           5.72159737945765   -8.75602053410403   -0.67458554691217
H           6.05019128165843   -9.06076557480039    1.87949757195857
H           6.94722390349257  -11.42110653346667    6.13817548267566
H           6.38501805408516   -9.95193156893772    4.09854079832956
H           8.01005273028595  -15.07100402351618    5.11316912911361
H           7.45657440816283  -13.22096481041179    7.49817893476665
H           9.50272060758084  -20.05166218123717   13.46574885645713
H           8.78576974063892  -17.73704767784262   12.54391472146604
H          10.69085956408060  -22.63829138499426    9.55566571337503
H          11.36418229143194  -24.98333019298599   10.46819026134376
H          11.32603350657984  -27.01344209695240   16.17930429756151
H          10.67703427327106  -24.70226552396488   15.24722608737532
H          12.83352535070664  -29.32809873212041   13.40640322377088
H          12.52500406183607  -30.85752493166265   15.15245947035505
H          10.42531861052870  -28.88363618538520   16.23292919737397
H          12.42295182912009  -33.34015544229567   20.14196350306613
H           9.29727668968718  -29.64928774873544   21.22760555191732
H           9.53635319742360  -31.96094249131427   23.81521071916826
H           9.34133748089298  -30.23406085049126   23.49254584934465
H          10.89202974646995  -30.86820904481248   24.05626402763247
H          12.55592952290190  -33.96142669741145   22.34177884758878
H          11.07367022650939  -33.72711758428784   23.27429236184124
H          12.42938342368916  -32.63106349563451   23.49991983445323
