158
 SCF done       -235.749918178882          0.000844692964
C          20.27756035161293   -9.03091362591574   -0.97554269242708
C          21.07968102447911   -9.91919568453800   -1.68540362619313
C          22.55660961252849   -9.68983296033292   -1.73964259586738
C          20.51355873528753  -11.02239372350242   -2.34401556168470
C          21.37729245844779  -11.97203599745724   -3.11075967523539
C          19.14032002785195  -11.23078101146455   -2.27874290819146
C          18.35197391785539  -10.34478849353865   -1.57300667548011
C          18.90850383111005   -9.23591791455177   -0.91640686134543
C          17.83964382238981   -8.48903697284335   -0.26700171595683
C          17.98198724301970   -7.28292678784977    0.36734332370161
C          19.21600120042404   -6.61953092766028    0.53026384842350
N          20.18806141508604   -6.03071473542398    0.69518728984510
C          16.93210198407168   -6.51927395769925    0.91965064150597
N          16.13943831218912   -5.82948439395862    1.38395899322339
C          16.59441290507690   -9.21091926894693   -0.48752680231269
C          16.89262284352139  -10.37621188881819   -1.36780574318426
O          16.13292633194309  -11.22418428155640   -1.78264052869680
C          15.43118055444213   -8.97264864470266    0.17525474503419
C          14.14225694855402   -9.57503107617560   -0.02505698032133
C          13.29049747449462   -9.68875302162281    1.09056383918063
C          12.06549048668066  -10.29196095100442    0.95596491472155
C          11.62944951131826  -10.70839275548636   -0.31604114330855
C          12.43276728315358  -10.53988874912052   -1.43537927822333
C          13.68692217595706   -9.98876535506304   -1.28405860589096
C          10.29856174221603  -11.25541654114593   -0.19188126827462
C           9.90065918736143  -11.17786838518091    1.15310524752186
C          10.99044258171793  -10.54309189289003    1.99715951224369
C          11.42065393010805  -11.56926417854594    3.06556343020098
C          12.55622485154003  -11.14615551300260    3.98849375599091
C          10.56933647753974   -9.17484526785510    2.57390403772081
C           9.44140588581088   -9.19808432671867    3.59708588329298
C           8.68821463790013  -11.70328772972453    1.54172057364706
C           7.84515921033655  -12.28147992827174    0.58764982924520
C           8.24314604788150  -12.31851687798927   -0.75127540657878
C           9.46512586520813  -11.81621916577769   -1.14858616525340
C           6.55360485179865  -12.86031063202440    0.97492624788295
C           6.13910908246436  -14.04253740053542    0.42497282496435
C           4.87806987157624  -14.58753097518240    0.76124972180721
C           4.22426805245718  -15.72914552004141    0.33221875901654
C           4.69646952434329  -16.79482322724795   -0.60334486662687
C           5.21966854601576  -16.23651317901114   -1.93791470180044
N           4.94289854878600  -17.18681475382711   -3.00274396848850
C           5.75261271555100  -17.67373020170148    0.09079568274764
N           5.12120034773577  -18.43273960181306    1.15789588168864
C           2.94310541407513  -15.74709098806985    0.99826863075625
C           1.92608161004006  -16.62400801977826    0.92800729047446
C           0.66134590971670  -16.41873979787981    1.68774135139551
C           0.65202195334516  -15.20702560707885    2.55964611599384
C           1.68164424757993  -14.34133038055276    2.62167700916559
C           2.85283108439188  -14.56063032891500    1.85857315642255
C           4.03532615723576  -13.86337535219434    1.70779389339695
C           4.50401641577711  -12.65488176384284    2.27348557803791
C           5.72329275122280  -12.17549046415719    1.91808316228090
C           0.29859891924581  -17.71174063575489    2.38119555568750
C          -0.01327947007787  -17.85609817873628    3.66404613242200
C          -0.38742688860393  -19.12902531782259    4.27298969603556
C          -1.31919864250917  -19.13274845244807    5.31663283901578
C          -1.70703815806075  -20.32704487389746    5.87698352025572
C          -1.15594499141420  -21.53682073169276    5.42462728502313
C          -0.21943780748696  -21.54206808751696    4.40174341827001
C           0.15168676880213  -20.33974991570313    3.83128128682729
C          -1.70904032117920  -22.61608016644531    6.21545861508188
C          -2.60022058065599  -22.07064506055016    7.15679387523477
C          -2.74997618860970  -20.58360346276829    6.94302261137877
C          -2.51515801751493  -19.76669051187808    8.21942758844145
C          -1.13412256280963  -20.01167360113308    8.81638588361557
C          -4.12346393182745  -20.26034039033436    6.30206393395164
C          -5.34219559077093  -20.74755016724157    7.07363645303452
C          -3.18229842238240  -22.87446008002438    8.10623053967730
C          -2.96353378974251  -24.25822936620597    8.06241867653676
C          -2.10335766528166  -24.79392004778982    7.09589508084715
C          -1.45529607010785  -23.98011621414317    6.19028083117005
C          -3.59981613658826  -25.10518145712970    9.04218727264493
C          -4.07252737196405  -26.35940356816101    8.86924807273825
C          -4.34081555878792  -27.23848669202872   10.04479587203829
O          -4.41754297646149  -26.89405476219402   11.20193463019854
C          -4.43111836507070  -28.59990773393557    9.48798910749706
C          -4.36661568670899  -28.54355592527278    8.08355280445951
C          -4.41355503977218  -29.71702452546225    7.35046035194136
C          -4.53325486572150  -30.93727375025481    8.00845031459243
C          -4.60960517227925  -30.98641189401834    9.40987898318506
C          -4.55430198801958  -29.80735353946760   10.14564933801411
C          -4.75088082027620  -32.29822350916473   10.11324673065638
C          -4.58456867777808  -32.19970409018504    7.20878673191291
C          -4.29678068873229  -27.14776620291993    7.66941434830074
C          -4.63200889632846  -26.66068996909182    6.43502837380990
C          -4.83658685108534  -25.29164283033277    6.16312405860294
N          -5.09320527967369  -24.20464494379745    5.89817907025894
C          -4.90925249213099  -27.47809686451723    5.32084828247211
N          -5.12352234921470  -28.10370813161379    4.38230404016486
H          20.73729675082899   -8.19465770860758   -0.47363718891251
H          22.82898028016388   -8.79734175808514   -1.18320935839086
H          22.88793940145639   -9.57179436743839   -2.77077686311976
H          23.09138843531934  -10.54034252515825   -1.31780506632844
H          22.12430062760163  -12.42267886964503   -2.45808411810881
H          21.90817872369848  -11.45063309414478   -3.90665694271578
H          20.77927395466139  -12.76420833564559   -3.55296426163863
H          18.68218787406651  -12.07374765257753   -2.77449403314931
H          15.46900897802811   -8.26780136707443    0.99882332053487
H          13.63220175672782   -9.31226613111934    2.04319434164441
H          12.08042757209313  -10.83281500764150   -2.41262686857259
H          14.30920563056744   -9.83640906940382   -2.14961829278361
H          11.71524041092132  -12.48286954884707    2.54163128210616
H          10.54493780456586  -11.81254705371990    3.66969528617756
H          13.48659094114731  -11.03755414733572    3.43858773015436
H          12.70529027880248  -11.91141702812381    4.74792256070343
H          12.33169596763034  -10.21065637607454    4.49374632004273
H          10.26798103401138   -8.54440065309236    1.73269627519657
H          11.44879357886499   -8.71151057876935    3.02409304392096
H           8.51552087190159   -9.54478259860125    3.14750894721349
H           9.27529397659281   -8.18962061308025    3.97075325052581
H           9.68441376747965   -9.83499234501327    4.44356419204029
H           8.38867562161799  -11.71324627281939    2.57879461284552
H           7.57255127557044  -12.74120030492170   -1.48518607957499
H           9.76908622307869  -11.86325205955878   -2.18365445573753
H           6.78481661077025  -14.57243270034211   -0.25826724114618
H           3.84986682009668  -17.44170613064972   -0.84784005975863
H           6.29121535655929  -15.99339236567238   -1.84727782535748
H           4.68355671855183  -15.31371118680003   -2.17689511078758
H           5.42795217745054  -18.06090794344466   -2.82882571979920
H           5.26577828990823  -16.82608604773545   -3.89386236827475
H           6.57850475546266  -17.03150106246565    0.44105033651561
H           6.16194607941494  -18.39538327945437   -0.62315692372826
H           4.71178277226638  -17.79445345082175    1.83350265017619
H           5.80796597361725  -18.99965147603608    1.64356436341995
H           1.98508093198413  -17.51349719190625    0.31580467391998
H          -0.12525287574444  -16.27221827906664    0.92321885587708
H          -0.25532437334888  -15.02966935701776    3.11695850104399
H           1.62422886933532  -13.46490193724249    3.25179460022652
H           3.88105008136598  -12.12057502678312    2.97648106488349
H           6.07932898162447  -11.23981379245112    2.32443318239494
H           0.29581922372757  -18.57282458341309    1.72596972509268
H          -0.05062613377976  -16.99579608933329    4.31834923022522
H          -1.73589675778083  -18.19658175553533    5.66026429867282
H           0.21470336937089  -22.46832113547792    4.05598857141187
H           0.89217701563223  -20.32967598978681    3.04562412407323
H          -3.27587009581663  -20.02573489635935    8.95687542717073
H          -2.62646751145069  -18.70608507904400    7.98426630258620
H          -1.00952332557992  -21.06089640546765    9.07542193330311
H          -1.00193183527411  -19.41627259883188    9.71701355877781
H          -0.35585679209032  -19.74087568524481    8.10614057558806
H          -4.14433386825950  -20.71490590217371    5.30884549714034
H          -4.18017921227325  -19.17676838499116    6.17320203466335
H          -5.37712009704783  -21.83332803754928    7.08521422826574
H          -6.24325932032325  -20.38855575835997    6.58104167797254
H          -5.34638625029238  -20.37509885198319    8.09505178337035
H          -3.83396109962990  -22.47049944002729    8.86575554818896
H          -1.90908883078970  -25.85756737590602    7.09718075447417
H          -0.76343677768003  -24.39989072708902    5.47556712329048
H          -3.66234404658678  -24.71551491338484   10.05372024570673
H          -4.34963256799874  -29.69967966898817    6.27366491852126
H          -4.61105825758096  -29.82501941488045   11.22379084558533
H          -3.91110259520056  -32.95164379234411    9.87866518404504
H          -5.66097598209702  -32.80652502659284    9.79614419625364
H          -4.79005484796548  -32.15564986729046   11.18964585792265
H          -4.51771868593792  -31.98582021478434    6.14571686751411
H          -5.51549592655936  -32.73311722217269    7.39769349623908
H          -3.76452302292322  -32.86207765628421    7.48444577409688
