108
 SCF done       -181.867799767386          0.000467320112
C           0.81807867524724   11.97112936182306   -3.81264861238034
S           0.99887520130532   10.72661011425778   -2.64655547563919
C           2.39924027709002   10.06715382240284   -3.47508997683095
C           2.69217514912683   10.81033865858599   -4.61445906822551
C           1.77515158316996   11.91323559397911   -4.80898538167385
C           1.87428398960077   12.79360419658542   -5.88410793942578
S           3.07007613075743   12.68959116610788   -7.09169253492663
C           3.99489818428250   11.31940457261656   -6.61162798859160
C           3.75465556586736   10.56261627847825   -5.51710261636128
C           3.08005846027618    8.93514330963021   -2.98802374433098
C           2.75093798484307    8.24840654718962   -1.85904042425304
C           3.49338367965881    7.12014075999780   -1.44422394457881
N           4.54025542052293    6.68239620648024   -2.15141286965529
C           5.00621499998921    5.61468481464122   -1.49054250641040
C           4.22019137346616    5.33659103030839   -0.28306342969891
C           4.76285187770698    4.16466624566863    0.41748307042504
O           4.37357636447895    3.64405813841054    1.44720244291128
C           5.89827011344083    3.77081115397242   -0.43129192040917
C           6.01686829982556    4.67453794481278   -1.58229994768813
N           7.06058072066738    4.32374373858247   -2.36660159754631
C           7.58953167649563    3.26985665228068   -1.77749551675094
C           6.91523272430808    2.87291755730088   -0.56936334544941
C           3.23952890700586    6.30300188404742   -0.23876941476497
C           2.20350359897410    6.53495923808723    0.70897871919631
C           2.02453214302398    5.74439230730857    1.79252665727102
C           1.03503106830480    5.88298393816503    2.82337312107534
C           1.04199356159637    4.95770962982850    3.85017967628809
C           0.11467043311383    5.04046895204739    4.90260189643962
C          -0.08056378890319    4.25704749626454    6.03548685183890
C           0.65406083477916    3.03075104769570    6.46096594939249
C           0.47555641968087    1.90480648981700    5.42718115265342
N          -0.94062432472123    1.67171295080344    5.20989290245617
C           2.14049981603108    3.32170295903277    6.72609204965908
N           2.26208833224669    4.28762507430348    7.80534569029805
C          -1.18745784417678    4.83182571137818    6.75335657805298
C          -1.76487178370408    4.49003131979456    7.92010194261896
C          -2.94939176659244    5.22222594104902    8.45043683884078
C          -3.34668906655261    6.42544252737669    7.65745514047253
C          -2.74381304662474    6.76838039331443    6.50195263306888
C          -1.66400702143295    6.00478403334548    6.00401513362602
C          -0.86313449564612    6.12161124241693    4.88523411298865
C          -0.85628674019319    7.05313322320373    3.82140568231941
C           0.06162465365536    6.93568892418830    2.82908698449017
C          -4.09269033297570    4.24140608294146    8.42140368802482
C          -4.68290612254726    3.73491416697692    9.51178308095948
C          -5.75489581724113    2.78923570918340    9.42857920689283
N          -6.25113098755989    2.40571075043026    8.26219360863325
C          -7.22238532017561    1.51200305025849    8.54695298269895
C          -7.35714872542595    1.30265014699930    9.97774792859249
C          -8.40957914904007    0.31974412825786   10.25818370780303
O          -8.77843740016905   -0.11120510443941   11.33606352430044
C          -8.89886074858832   -0.02698774806250    8.91299245496997
C          -8.15091929994080    0.71616509695298    7.89252301084972
N          -8.58713166209188    0.40666793094592    6.65280035919493
C          -9.55200369118004   -0.47316397453232    6.83982748734769
C          -9.79624156657994   -0.78783161063632    8.22328103478428
C          -6.41139975060246    2.12865653889766   10.57487126927426
C          -6.10636606945846    2.33823929497878   11.93135695813691
C          -6.71684088491124    1.63790335603546   12.94272484185060
C          -6.51092196081069    1.76615060643668   14.31684567479709
S          -7.04527982700029    0.46321634716653   15.34020396285519
C          -6.36103361314849    1.19070780329418   16.77700742980139
C          -5.78605247171340    2.40835304415412   16.49639553186528
C          -5.89712166417096    2.79065629353605   15.10018288605952
C          -5.54178877180799    4.02911613570917   14.64460115341880
S          -4.80435617608276    5.25694609317438   15.59931280977194
C          -4.67995775171154    4.49101703235574   17.15282845306231
C          -5.14911831464506    3.26839760569887   17.44304153010500
C          -6.44878883789202    0.52118078605182   18.04331398439341
C          -7.04985041937343   -0.65177715547238   18.23424107417150
H           0.02447761228347   12.68301707080590   -3.71558041055468
H           1.18060983334472   13.60668335661858   -6.00899312919483
H           4.81031591964699   11.11063300950602   -7.28345754110363
H           4.40819683749818    9.72563052782577   -5.32183464012032
H           3.93320175874543    8.57468501865715   -3.54496357430738
H           1.90738618207390    8.56514141658182   -1.26154787792222
H           8.45017095141479    2.78600041297681   -2.20641437182048
H           7.18621178239872    2.04541430612155    0.05677503279716
H           1.55873651505756    7.38332767156357    0.52672931422373
H           2.69970101676657    4.90752307507305    1.91747867275293
H           1.77824229212119    4.16877309021887    3.82914221412995
H           0.21592132161013    2.68174436327921    7.40344186815027
H           1.02108601989899    1.01152586887464    5.78200942812087
H           0.90894074624347    2.20451584173567    4.47188665575842
H          -1.38492328288416    1.33389787358412    6.05720814255043
H          -1.08236801589012    0.97801942698614    4.48518983171983
H           2.59874709598354    3.76132178283091    5.83962930841370
H           2.65329308142015    2.36582783759846    6.93559381078397
H           1.93926410041110    3.88547237134066    8.67952603979474
H           3.23007179544935    4.56216991302543    7.92680128262654
H          -1.43180668593781    3.64368843995423    8.50471927113243
H          -2.76216877934262    5.50740463451542    9.49461933249234
H          -4.17997645597353    6.99052756052704    8.04623290059084
H          -3.07014028886337    7.63877718077234    5.95091792259470
H          -1.58410933113651    7.85182013828464    3.81074883534777
H           0.06601584902571    7.64910506901641    2.01946951937451
H          -4.43524700238179    3.93423276323823    7.44474519736652
H          -4.34962018150103    4.02509701975087   10.49986747589051
H         -10.07644564706564   -0.88828842261407    5.99668371737449
H         -10.53309116477139   -1.47574328115955    8.58944652963652
H          -5.31984199412976    3.04295792034571   12.15920351115798
H          -7.40209792247996    0.84985597598144   12.65090544992654
H          -5.73938777910122    4.35255506272374   13.63851791748352
H          -4.19881760452611    5.11666513851026   17.88558032857845
H          -5.03776951406966    2.90971630864563   18.45570121223894
H          -5.98636365748551    1.02927090008477   18.87888519539289
H          -7.52115955011493   -1.18208584829227   17.42374177899534
H          -7.08930685891355   -1.11283635036854   19.20477724227714
