154
 SCF done       -260.651502902211          0.000460099373
C           2.92791667217727    5.96678420163783    7.15885544170539
C           1.58166584319261    6.04863731690135    6.88329959077488
C           0.70108263438195    6.76333773333982    7.70622523765676
C           1.24093642928488    7.44050899492951    8.82457879857450
C           2.60444398882429    7.32667915225246    9.10259243195033
C           3.44113518488425    6.59858362518662    8.28492463370905
N           0.44724980529022    8.20657892693979    9.68618415241063
C          -0.36521767232506    9.23319260318900    9.17819980797632
C          -1.58558860186027    9.52840705981839    9.78606280695952
C          -2.37736033745604   10.54618097552245    9.29019778684983
C          -1.97068063794766   11.27509022618705    8.18435916450789
C          -0.76602436881102   10.97456119033524    7.57057170412171
C           0.03722957013081    9.96406930908543    8.06261672114243
C           0.63684537297502    8.08308855695545   11.06690480908230
C           0.57379796495449    9.19359601614220   11.90793575289794
C           0.75278909750660    9.04468410308323   13.26955308697159
C           1.00649515599172    7.79623250675724   13.81341850262275
C           1.07729094444885    6.69094506103146   12.98116898145461
C           0.89022863227785    6.82718703482944   11.61974529060397
C          -0.71759294392548    6.77638449963582    7.44693233737840
C          -1.38094717326549    5.94823018221672    6.61783872685060
C          -2.81100891399921    5.97706953617714    6.46685506442017
C          -3.53698882011431    4.78864184862790    6.29406280455666
C          -3.04483090181390    3.41210112454213    6.10683424810422
O          -1.91551711067094    2.99229755739252    6.04768928657488
N          -4.18839581167776    2.60478131190970    5.98441434623254
C          -5.36752905555784    3.34328698770658    6.09199273093322
O          -6.48963034884201    2.91098324743933    6.03515236350482
C          -4.93336590960698    4.74840921784643    6.28490033096857
C          -5.70024648873143    5.88624979867494    6.44510652941974
C          -4.99955936127240    7.08506825174462    6.52956462133029
C          -3.60363565907140    7.14976426528104    6.50420308305524
C          -3.08796120077229    8.51765633947484    6.34632725164447
O          -1.99209324865247    8.88545590330582    6.04336430255297
S          -4.45515891233187    9.68645879560857    6.53207319370581
C          -5.68454588721059    8.38800310048005    6.61911821517595
O          -6.85763145151923    8.58722912488483    6.72919409126362
C          -4.05719982111413    1.24115559558114    5.73565149148713
C          -5.06729444395595    0.38008044191876    5.57392860803335
C          -4.92393015766417   -1.02835598977489    5.26871248191737
C          -3.71423860242189   -1.68768480623374    5.26697520077410
C          -3.64964434823399   -3.04622764387429    4.90664183411976
C          -2.56399095949301   -3.91108006617608    4.79837317238753
C          -1.14701952207067   -3.59828731252859    5.11994451488810
C          -0.56915499991622   -4.55874404742577    6.17935402138250
N           0.76233768710831   -4.11799639829169    6.55968529919620
C          -0.26296123796060   -3.58907000494243    3.85806659728184
N          -0.61819338003045   -2.45980697818774    3.01638312116734
C          -3.08415669978105   -5.17313308730254    4.32201805305867
C          -2.47513597664314   -6.32001496006448    3.96562517492180
C          -3.25107837789982   -7.50319351068138    3.49239222306972
C          -4.73054686363925   -7.32009238488083    3.47219262717719
C          -5.32121909241632   -6.15043471605564    3.78626005088913
C          -4.54158398614215   -5.04533532132614    4.19706642757946
C          -4.87115844794107   -3.74450457196520    4.54455043270455
C          -6.10238187899033   -3.05806287581478    4.58619848925203
C          -6.11822985879135   -1.74487846043351    4.93951107051393
C          -2.78807606398227   -8.65915792947145    4.34485321555549
C          -3.50150644220848   -9.18763574044805    5.33008506804622
C          -3.02568053344492  -10.28553056801516    6.16175314985271
C          -3.82291073046366  -11.41283350358369    6.35134834673247
C          -5.17470744805487  -11.69191108571786    5.82077232012693
O          -5.86961320116326  -10.98314029111486    5.13187855984769
N          -5.49968325892821  -12.96920582495710    6.27650714133221
C          -4.47414623519619  -13.53776890210418    7.04595947641750
O          -4.51411040424058  -14.63616114566749    7.53820631774398
C          -3.40158473204015  -12.52414603625629    7.09317313139677
C          -2.16633442897786  -12.55827332079679    7.70888318952342
C          -1.37486742604954  -11.42314550026547    7.56655745302590
C          -1.77858914503459  -10.30759501058216    6.81485426601098
C          -0.82861204048790   -9.18999815036427    6.85897016014635
O          -0.90911015791125   -8.09837130040105    6.36580370331565
S           0.59754567984603   -9.66805821715107    7.84977122896713
C          -0.06085435021271  -11.30180470971159    8.20820086206786
O           0.51598625649527  -12.11351028818639    8.87017991180250
C          -6.66939983950300  -13.68861723430762    6.02761236413758
C          -7.75611658634094  -13.21620696270987    5.41264409708695
C          -8.96078927718731  -13.98322653949512    5.16123102307074
C          -9.00007105193206  -15.37623130367482    5.21034356652514
C         -10.16261452217291  -16.09150740755856    4.96103378956823
C         -11.34669244775417  -15.38503752507329    4.67446875794141
C         -11.30935600436967  -13.99208972357598    4.60524941502111
C         -10.13845899776480  -13.30496310086463    4.83074303670235
N         -12.55635517217373  -16.05765497589394    4.47040880230950
C         -12.93782094273770  -17.09347962821651    5.33011029641535
C         -12.55540791838175  -17.07656713249707    6.67105558860670
C         -12.91909032431876  -18.11127323962437    7.51030684777476
C         -13.67435857366347  -19.16982673159347    7.03405269402755
C         -14.06362420566941  -19.18731156681644    5.70443557804556
C         -13.69832072101821  -18.16229508376816    4.85480578253746
C         -13.43415627439804  -15.59854377632374    3.48173824114886
C         -12.93173354241227  -15.14725530999800    2.26092316576410
C         -13.79110480367909  -14.69018822562910    1.28128094705923
C         -15.15964486087301  -14.68145249372680    1.49687167557354
C         -15.66348092767716  -15.12938854234544    2.70714379622213
C         -14.81200627753596  -15.58115933620385    3.69652288462478
C         -10.13940001894582  -17.55468504906374    4.93469906960290
C          -9.38815318164459  -18.31303934465212    5.71976892799670
H           3.58201798081377    5.41144593052834    6.50417605010277
H           1.19078239951026    5.55498139469309    6.00801463990377
H           2.99980792428950    7.83749337307114    9.96883045307940
H           4.49489661114240    6.53728588317733    8.51144793992036
H          -1.90530378598340    8.95236270407877   10.64305356927004
H          -3.32302723517324   10.76459524510917    9.76430080186354
H          -2.59563094614920   12.06527316345630    7.79815681127521
H          -0.44661098052763   11.53279211200238    6.70437837112217
H           0.97702872367408    9.73005034759067    7.58484995489673
H           0.39165290398150   10.17168850203500   11.48773661451112
H           0.70365344082475    9.91352146813819   13.90924451523378
H           1.14915587475644    7.68568876915184   14.87750264487217
H           1.27193585329372    5.71288092428763   13.39596614392779
H           0.93699559585382    5.96296275121222   10.97292909398021
H          -1.29853417707242    7.47778138892368    8.02747828554991
H          -0.88062906456054    5.13436922365486    6.11501351743938
H          -6.77753390312187    5.86226019160844    6.46934759163980
H          -3.01607730652225    0.95630433384445    5.66816983004063
H          -6.08139437688783    0.74526959314002    5.64033759549989
H          -2.80644905991308   -1.16797737025120    5.52864724720022
H          -1.10546831483711   -2.58863882632247    5.54353802214473
H          -0.48221487505568   -5.56741280573270    5.77665992864900
H          -1.27383206472790   -4.59984194195065    7.02595620176845
H           0.71361006873424   -3.26203734046305    7.10301651337962
H           1.21736062452350   -4.82277149419609    7.12769453497988
H          -0.43225699193584   -4.49747145936583    3.27740129575469
H           0.78407708473227   -3.57963768572637    4.19717514231377
H          -0.38335544101331   -1.58774632472199    3.47881304476170
H          -0.10906545074314   -2.49319857472535    2.14108465543138
H          -1.40559496709503   -6.45098426957182    4.02668372142684
H          -2.92495009064302   -7.71986629642467    2.46152886376455
H          -5.30974009551087   -8.18005214797964    3.17241090523410
H          -6.39501551634343   -6.04423427330217    3.73449726361367
H          -7.01522070497214   -3.57609305104894    4.33183797463126
H          -7.05284378241923   -1.20383932133643    4.96766385045280
H          -1.78861752643620   -9.01421974944724    4.13602839055956
H          -4.52110757953000   -8.87393110678740    5.50471175338135
H          -1.82643026657669  -13.40697531735861    8.28041564048241
H          -6.60055303102406  -14.69454855978312    6.41832998047875
H          -7.77746291414986  -12.18739991065761    5.08561775831143
H          -8.09282331370257  -15.92907992585630    5.39588911617969
H         -12.21866134483835  -13.45479244749803    4.37769803151785
H         -10.13243756501874  -12.22649130434658    4.77442705712004
H         -11.97653678939344  -16.24689769885051    7.04918254231168
H         -12.61659449970478  -18.08572132102114    8.54665290577397
H         -13.95856471495425  -19.97545665001775    7.69363025993224
H         -14.64941871554349  -20.01065354176452    5.32293916739352
H         -13.99139494947447  -18.18581210101309    3.81513517265769
H         -11.86520021837195  -15.16069577514912    2.08924210756543
H         -13.38953117396668  -14.34551076372898    0.33979912363244
H         -15.82875789700856  -14.32679171537064    0.72785238355049
H         -16.72840124710148  -15.11833362252496    2.88689979985667
H         -15.20716300398922  -15.91650386999558    4.64419114529444
H         -10.78999016986794  -18.01886399040714    4.20439844270488
H          -8.75480051038587  -17.89423563699086    6.48368588364961
H          -9.39638289949644  -19.38629993849294    5.64214277648620
