92
 SCF done       -161.380387299147          0.000864200462
C          -2.58102135735471    6.67064849084196   -1.95711484754394
S          -1.21918417378494    6.58439384689381   -0.92181397206561
C          -1.09096188378889    4.86031477470341   -1.12691441605076
C          -2.11342686961097    4.40282170729953   -1.94195754569476
C          -2.95675992852807    5.44013143538783   -2.41661968268530
O          -4.00524842222922    5.20308999285968   -3.23683169203455
O          -2.37783556005156    3.09915543664993   -2.30127071392203
C          -2.84260245407620    2.27173508989465   -1.24653102976318
C          -0.03400418754280    4.10696688555958   -0.54920869141007
C           0.37994553767509    2.77551627276899   -1.01033636109116
N           1.36768117947804    2.26014256306580   -0.33874461665712
C           1.69082986599310    3.19044088269801    0.60500180377613
C           0.84731043081472    4.38443884331545    0.47370088093082
C           1.18224634112645    5.33709137670427    1.50218933957923
S           0.44235203301174    6.78357294125804    1.77595308609172
C           2.24005144706041    4.70492073369208    2.25497734487341
C           2.52133888261935    3.37961333483108    1.67929946559461
N           3.47318925095715    2.72514840448534    2.40264303440253
C           3.75971969404273    3.52228261988518    3.39107767676082
C           3.02896972846629    4.79102575568689    3.38536347771183
C           3.19704845527356    5.82375271502161    4.36892535776326
C           3.62872646864994    5.50254234295800    5.64253756033044
C           3.74843312054231    6.50898417016796    6.61428491256431
C           4.11933994471245    6.43848664604453    7.95621351341903
C           4.49545297877353    5.19559296073894    8.68466281482432
C           5.80385526307478    5.34163916542586    9.47627383785245
N           6.79976062130519    6.02152347269547    8.66462862853689
C           3.33952326107677    4.72860964781591    9.59605154938603
N           2.25481939112019    4.24197888807119    8.76678780735234
C           4.00823818820028    7.77718249793296    8.48650420304843
C           4.16575509095052    8.27227656959786    9.72881815285548
C           3.93061533548729    9.70703464846905   10.04085301802988
C           3.60238817635897   10.56131294416965    8.85431885555764
C           3.41895918428136   10.04898142619841    7.62293975443383
C           3.59150623460771    8.66504651771565    7.39060475750669
C           3.42946318515671    7.88326399540017    6.26189148667251
C           3.02144997972436    8.18543101784964    4.94369619619617
C           2.90960465936330    7.18478333188704    4.03230339928467
C           2.77401021380695    9.86782500417889   11.00227974526018
C           1.77071736473387    8.98679234959273   11.07245723239102
C           0.62811848614902    9.08463133777820   11.92461963289512
C           0.24793696235086   10.14852024519057   12.85606183001427
N          -0.87206370883535    9.93696330868644   13.48809154744470
C          -1.32402100069892    8.72834473068421   13.03673390727069
C          -0.38844270302448    8.16870507596478   12.05393555888532
C          -0.86522798747627    6.89566495672534   11.57721145643173
S          -0.10828486202703    5.91258533425535   10.49588588637817
C          -2.11086861966879    6.70196571210825   12.26701865805136
C          -2.36437609863492    7.84567211861910   13.16409628146241
N          -3.54809961185614    7.68586391386301   13.82555678001414
C          -4.03537711634727    6.55781534737527   13.40486864500062
C          -3.19641460224228    5.86625551482297   12.41307013407152
C          -3.52464493356108    4.63365322998685   11.79840476405422
S          -2.46774787713488    3.86038355345328   10.64139376769684
C          -3.56335780762831    2.55670509523348   10.42342105285362
C          -4.68267576142986    2.69340571585701   11.18823893475795
C          -4.66962698812693    3.87522661431323   11.97892531929641
O          -5.68862361517654    4.19293510744415   12.80614757926196
O          -5.77186312676460    1.87598979500016   11.28808276119944
C          -5.76848730813493    0.72305999501374   10.47975054180018
H          -3.05077901969693    7.61087015631335   -2.15970409304581
H          -3.99919045651755    4.25680693272146   -3.44493562713099
H          -2.11724004194204    2.20987550069762   -0.43076508137183
H          -2.98557045772296    1.28496062990036   -1.68126631718138
H          -3.79513077844698    2.64105751792064   -0.85104005578161
H          -0.04354095976570    2.25771764760285   -1.85239999641049
H           4.51686451866300    3.24493065429821    4.10367454811912
H           3.81694220022732    4.47456505985746    5.91180120058123
H           4.63920338637840    4.40430213394842    7.94238650176265
H           6.11716319224129    4.33570411761860    9.80635830993549
H           5.64556710043010    5.94290445558651   10.37418066293013
H           6.96353280672261    5.50586320727571    7.80600495980651
H           7.68123484252609    6.08165063570716    9.16240020256349
H           3.04832310751419    5.55111185424451   10.26814079636261
H           3.68956825604979    3.89417166915646   10.21102778098465
H           1.84790541879252    5.01011737685282    8.24187236052021
H           1.51661195100444    3.85383129961839    9.34336780856197
H           4.42840267769998    7.64860035386757   10.57019147933484
H           4.83148970224096   10.10208363147457   10.53294863366789
H           3.47228600476816   11.61498374324259    9.04873330150829
H           3.14941137526920   10.68887468724179    6.79527303476056
H           2.79830901425922    9.20614133442579    4.67187759828455
H           2.59814073444819    7.40010743000269    3.02333924349126
H           2.77039217712412   10.77085888733293   11.59514147141462
H           1.79168950520701    8.10045235796746   10.45055850685797
H           0.80623326619510   11.04982306609234   13.03968675500742
H          -4.97499196273821    6.18701231379633   13.77091547484450
H          -3.31033970752517    1.77191277209964    9.74002063533985
H          -6.35603229497542    3.49582857015422   12.73084778544483
H          -6.70595677889895    0.21045087698573   10.68603292406769
H          -4.92833119914623    0.06880647340463   10.73034792839021
H          -5.71835597194478    0.98631424966652    9.41912090354757
