126
 SCF done       -199.245374842825          0.000748706527
C          -4.43586300414607    7.85493122773398    5.36783782156528
N          -4.37792116029226    6.64258765645963    5.78826460554892
C          -3.22656459588936    6.05834906831266    5.39971198887050
C          -2.39066818511638    6.85328696208875    4.65484534659834
S          -3.05726690764384    8.41643316803652    4.44738461863756
C          -1.12116909449270    6.13418927793401    4.44366460193607
C          -1.61256808216184    4.67371451103434    4.48979540440788
C          -2.68028143958197    4.66482540146679    5.63020537236133
C          -1.99033586738525    4.55063351050199    7.00341443445272
C          -2.93295178111977    4.75283546276182    8.18414834831937
C          -3.82175249128146    3.64428200560546    5.51371598490521
C          -4.50190602994368    3.59151290324028    4.14955023689172
N          -0.38585305596262    3.90807891467218    4.49464447918334
C           0.70446761245765    4.63819531711679    3.86789794187842
S          -0.00309871509260    6.09498457860709    3.01069706953234
C          -0.26958840484416    2.56872070271036    4.61747983865828
C          -1.34619267189909    1.57848742460722    4.49321064186167
N          -0.94874503263780    0.34814461049492    4.60517673775617
C           0.40123588403610    0.41329366444206    4.81386767349764
C           0.86682753560534    1.80150182472305    4.80054257841349
C           2.27861303586226    1.83618222324984    5.06427821849148
S           3.20807587073039    3.18165032331994    5.31622252718965
C           2.67245198407988    0.45030786220998    5.17369819317309
C           1.48147202912352   -0.39780762823335    5.03868438479921
N           1.79562114973455   -1.71567869922293    5.20760678175963
C           3.07101510825166   -1.73398580195486    5.45627542654211
C           3.71274714921115   -0.41503281394471    5.46289781835478
C           5.11082689744335   -0.18500908599649    5.68232275805339
C           5.69860249474619    0.98615541073638    5.23634854399438
C           7.05863451625807    1.21967489314087    5.46306593567587
C           7.85266465817215    2.32660994295471    5.15447956139440
C           7.40229231151648    3.55471284554653    4.44444434948925
C           7.38103393159872    4.75764736005632    5.40332337653943
N           6.63766090220059    4.40519172283162    6.60010935045416
C           8.25055324981937    3.85188154948514    3.19464560315041
N           8.12561295459272    2.75024901089465    2.25838766599816
C           9.17336624927949    2.02727858779445    5.63657801163341
C          10.30881840168075    2.75774372020286    5.66683785388253
C          11.61023886851554    2.12596944428934    6.02323947632539
C          11.49880355623773    0.81907909719135    6.72821564077685
C          10.33608791439528    0.14078667382594    6.79514446607630
C           9.15724235555284    0.68030349770913    6.22583649150255
C           7.85707996753349    0.21220254732887    6.13885809959078
C           7.23928274384521   -0.98261879838659    6.56871752913353
C           5.91048273109416   -1.16792744356247    6.34916643364155
C          12.12199434337491    1.93218593715444    4.60273435522617
C          12.53945691676389    2.94922060362170    3.84203368499736
C          12.86807042528912    2.85108002804050    2.45257793981097
C          13.32422256175535    1.69497014358576    1.68533869268000
N          13.51309657388747    1.93419727484768    0.41535961536867
C          13.18408963731714    3.24533522662335    0.23622783653212
C          12.77988692051789    3.84885246336374    1.51158391867691
C          12.37015905991208    5.21647559508866    1.31592477204527
S          11.75674265662984    6.23322440226375    2.45666771238593
C          12.57307236732609    5.44473066868753   -0.08869794025350
C          13.07140668247394    4.21541164553137   -0.73112861035884
N          13.25375497435694    4.40893703242636   -2.06827348027865
C          12.91193705514176    5.64352264280860   -2.29483820749574
C          12.46444758330352    6.37205235920800   -1.10285710403777
C          12.04115579377101    7.71820476291797   -1.12217316162312
N          12.02227832155732    8.45296976054462   -2.20174462741913
C          11.57420983130442    9.67978682090517   -1.94915267307826
C          11.22280109254177    9.92938356799620   -0.63083997948777
S          11.48273933419284    8.56129007108201    0.34743726008428
C          10.87965155912405   11.35436639262093   -0.48894067614927
C          10.41523372671473   11.67168088242916   -1.91777777674833
C          11.37659377680955   10.88104564630691   -2.84599158170257
C          12.70641043671273   11.62789932388230   -3.03957666407949
C          13.72934729685775   10.84158323102915   -3.85086259021198
C          10.72138300425675   10.44900537346905   -4.16429190847281
C          10.42282263898205   11.58909922881034   -5.12876978791616
N          10.28014989171057   13.11302652034226   -1.96171983802937
C           9.83746844984418   13.58224351075395   -0.65872020009264
S           9.56067648003053   12.14774980238746    0.48161978346659
H          -5.26462178102192    8.50860163931957    5.54898635324167
H          -0.45400154028312    6.35410178232864    5.28818297557181
H          -2.15195350458897    4.49165124923036    3.54689043961511
H          -1.19532468590969    5.29724692860415    7.06171339301436
H          -1.52116260456387    3.56590679713428    7.07025746648761
H          -3.52708410851548    5.65299091143334    8.04670750251065
H          -2.35603651254012    4.85442812819929    9.10027728223678
H          -3.60491407931620    3.90780951882198    8.30209956031662
H          -4.57454598244278    3.95233953983243    6.24025421628007
H          -3.46613824671997    2.65478401738071    5.80482430300018
H          -4.83115920319611    4.58479397232936    3.85283961446838
H          -5.37678886429138    2.94848799512398    4.20730485855887
H          -3.85316517231832    3.19585506016463    3.37031730905649
H           1.22289636303589    4.01369834484229    3.13864275245056
H           1.42797696531487    4.99603406867731    4.60722998535791
H          -2.36915077583192    1.79590213290388    4.25634085372777
H           3.57580968323647   -2.67329251234949    5.59915499581362
H           5.10794426067526    1.71322954617627    4.70476097583343
H           6.37799226427131    3.38541866765843    4.09969342096470
H           6.96520238019057    5.62315866103300    4.86000708384020
H           8.39897378225701    5.01351506525463    5.71057153644579
H           5.69808212172016    4.10973819743217    6.35224809990127
H           6.55485306292858    5.20990434946101    7.21182481845020
H           9.29170406924252    4.06137283927692    3.48455477462696
H           7.85609934938937    4.74769919302547    2.70712640194921
H           8.51355351261576    1.90194226140655    2.65859651676437
H           8.62244887796893    2.95214020773439    1.39839282706108
H          10.34632202878711    3.78455553754306    5.33722929168067
H          12.26529644657530    2.81816057176373    6.55979446444436
H          12.40948295089228    0.41599801337743    7.14369476304735
H          10.28488257265992   -0.81710166405822    7.29207450277965
H           7.82390351690972   -1.73500810017405    7.07775388494722
H           5.43138171980520   -2.06877118905312    6.70054458086438
H          12.01055573000237    0.93770796360380    4.19644112272887
H          12.57514267108532    3.95353790942347    4.24663966582764
H          13.52454817473028    0.71848456001233    2.09033255271381
H          12.95843902844232    6.07104310001968   -3.27979449280402
H          11.78336020802907   11.91944314965812   -0.22757273697086
H           9.42616641319170   11.18646928529254   -2.03149916726319
H          13.12628028760649   11.83798188928781   -2.05336713104732
H          12.49710577417349   12.58806330311128   -3.51156820878340
H          13.83916845075792    9.83732139826329   -3.44845373300675
H          14.69588501658174   11.33875105397161   -3.80878463272704
H          13.43435612495638   10.76455338365947   -4.89378135294501
H           9.78915880817111    9.93016961685108   -3.92417485719048
H          11.37641322830695    9.72126591084830   -4.64347879978204
H           9.77090298598793   12.32820302775741   -4.67018282788849
H           9.92310510299266   11.19836248699617   -6.01217715494162
H          11.33376156790741   12.08709658423426   -5.44709675557339
H           9.62830501224318   13.39182964640154   -2.68646525748616
H           8.91419026600816   14.16047457435486   -0.69622151662119
H          10.62464134621011   14.18903387043740   -0.20116550748680
