114
 SCF done       -181.195785356228          0.000335067153
C           0.23524376351866   -1.21446350928556    6.49681572603853
S           0.04391057005387   -2.89719620464502    6.46673837284624
C          -0.68779235650766   -2.92140220072685    8.05057414304784
C          -0.77343009862812   -1.61585551682100    8.57548144518745
C          -0.23438837100262   -0.64266188170079    7.66334105942641
C          -0.21116114864543    0.74371900553141    7.97574367137747
C           0.35929702137146    1.72569899045599    7.00329685821365
C          -0.72516265659724    1.12293141809178    9.18231717013802
C          -1.25651251816878    0.18030514433159   10.07859482264124
C          -1.29716728965513   -1.16675190325652    9.81686194708331
C          -1.88725538005582   -2.08444100223304   10.84299128048367
C          -1.08206550544939   -4.16270211569960    8.59142846598376
C          -0.94454464545565   -5.35612036726611    7.94793100445835
C          -1.33531523199631   -6.60169523550898    8.48089987677731
C          -1.92280958157383   -6.88354487925220    9.79623649856481
N          -2.19190503788517   -8.13802947543683   10.01006348756163
C          -1.80998509908029   -8.79288869997860    8.87069405179504
C          -1.25771588687702   -7.85553648986865    7.89787633033737
C          -0.88309145742096   -8.54825878042387    6.69826384699442
S          -0.25914792904821   -7.84497754946479    5.33953213979500
C          -1.21429084437933   -9.93155270842535    6.95577080443954
C          -1.78741674013267  -10.04444555436982    8.30525293790765
N          -2.15921192030445  -11.32871188618106    8.57210137888555
C          -1.89868853743285  -11.99456870023050    7.48402400680260
C          -1.30888771053353  -11.19787176128254    6.40695544731789
C          -0.93986977210944  -11.69777749002682    5.11344248152484
C          -0.02131951303561  -11.01030953885243    4.34387281716860
C           0.29992737194205  -11.46418191665624    3.05687183875544
C           1.14070323714321  -10.91975136370717    2.08682910275148
C           1.91394480794892   -9.65860968205751    2.23676460898228
C           3.42708601751456   -9.90132986138057    2.44121653111854
N           3.99735773271900  -10.69948208941930    1.36898923888169
C           1.69787912911930   -8.67173323060952    1.07722318818566
N           2.09223122864790   -7.34271703729089    1.51380718686042
C           1.06290966124844  -11.79236694795389    0.93992897808495
C           1.66202085521303  -11.74107237577061   -0.26701850500201
C           1.42999188469229  -12.78741143085352   -1.29698151158710
C           0.44148513084359  -13.84388833834904   -0.91024659042908
C          -0.14219293103686  -13.88691322875816    0.30233279007880
C           0.13303277839119  -12.88625012834996    1.26302084531624
C          -0.32220492197739  -12.67631170956960    2.55106165718157
C          -1.23090054396699  -13.38132431597467    3.37280649965451
C          -1.52785840367020  -12.90376347147938    4.60900938541995
C           2.72857914125789  -13.49622552349068   -1.59996233753573
C           3.13146165223731  -13.79123259175901   -2.83979927466816
C           4.31548839148874  -14.52326301481558   -3.16754709127728
C           5.38002304194914  -14.98135623490363   -2.27522158206594
N           6.34153812975440  -15.63095315529885   -2.87228959875817
C           5.99386278211925  -15.66368940253041   -4.19112677117865
C           4.71670827203293  -14.97523167954723   -4.40373642701819
C           4.35814975383108  -15.01434509525262   -5.80099906986525
S           3.02854132622503  -14.34134839950073   -6.50470529743779
C           5.43579112655388  -15.73294768226859   -6.42150429388429
C           6.42358519284199  -16.12406335166862   -5.41293508235997
N           7.44941164722002  -16.81924749929782   -5.98998057123746
C           7.19363157912651  -16.82814430595522   -7.26356527667457
C           5.95205120279116  -16.13969927408998   -7.63868845202481
C           5.36892603601337  -16.09734962052289   -8.92847409983480
S           3.64890292381800  -16.29090205783894   -9.01575382908671
C           3.67287446141383  -16.49124681604044  -10.72027221868098
C           4.95056632246772  -16.27314903563156  -11.24672728364565
C           5.93128137405925  -16.03475661608227  -10.21614855879879
C           7.25085707740498  -15.66142236602330  -10.56965411001961
C           8.28019715369665  -15.19930572694926   -9.58387145276369
C           7.57093915058977  -15.64737447185575  -11.90651386791475
C           6.62904653976697  -15.91053119216047  -12.90569050242254
C           5.31413753289864  -16.17550040972917  -12.61624845752795
C           4.32059960201563  -16.26874411375298  -13.73077883806952
C           2.42825345408329  -16.92083476321059  -11.32634408372051
C           2.29330595673596  -17.99820892702365  -12.09086238973643
H           0.68297192930944   -0.71873986670246    5.65884772768226
H          -0.18137791055040    1.68600671196617    6.05823004933060
H           1.40552982083364    1.49864367921574    6.80078748186890
H           0.29332305211319    2.73563512006651    7.39927555135778
H          -0.72961516870709    2.16579209938658    9.46359319061525
H          -1.65050117475223    0.54121186190238   11.01775988550441
H          -2.22717606786980   -1.50952479381690   11.70145294138939
H          -1.14748602241804   -2.80441153636925   11.19153217020844
H          -2.74323730026247   -2.62226193189645   10.43672566678130
H          -1.51732010166929   -4.16158650740591    9.57530914909379
H          -0.51256662578993   -5.38163876239454    6.95491205669112
H          -2.12573454640050   -6.15543433484728   10.56242850105584
H          -2.08322931531550  -13.05410532659531    7.44707625636246
H           0.44786891821803  -10.12359616609111    4.73716942739056
H           1.56103583464616   -9.15786094049638    3.14425719535174
H           3.57352208949936  -10.35317562821643    3.43479509848801
H           3.90215146042568   -8.91868468395432    2.43114835185669
H           3.78748468831878  -11.68163752513000    1.51161700723485
H           5.00462703371877  -10.59422898684927    1.34704664633759
H           0.64610762210190   -8.73101434962193    0.74872787945139
H           2.34049210902497   -8.94356570077588    0.23843777320981
H           1.50420009950366   -7.03935371429158    2.28442715149318
H           1.98186198600319   -6.67523999705383    0.75849811552308
H           2.37648592034490  -10.97003938925748   -0.51107310976180
H           1.09227197867161  -12.30079072728094   -2.22271972294978
H           0.24471457623442  -14.59769036006918   -1.65714367377048
H          -0.83912036774784  -14.67447015170362    0.55087459532385
H          -1.69185888108207  -14.28647891085338    3.00491445470378
H          -2.24324877985768  -13.42399605794122    5.22721758118598
H           3.28885654841705  -13.81906905572805   -0.73494715525831
H           2.53588138347466  -13.48464930128726   -3.69121519177363
H           5.41374880437507  -14.82876601660700   -1.21092149949630
H           7.81861261758345  -17.37818107202791   -7.94354358022472
H           8.97029860699119  -16.00199295669324   -9.32774099930436
H           7.82384786554920  -14.83291483499349   -8.66824815729306
H           8.86723690420963  -14.39522793947451  -10.02474461349919
H           8.57369253897579  -15.37335873654824  -12.20107448894997
H           6.93903052605023  -15.84100809899235  -13.93828168030631
H           4.73397602170644  -15.81828982883057  -14.63047170289259
H           3.39724565396478  -15.75638058308754  -13.47155608576200
H           4.07501094388074  -17.30505284705389  -13.95608406434365
H           1.55172561184506  -16.36143294114847  -11.02141787556342
H           3.13366777932183  -18.62066065409632  -12.34706943874147
H           1.33350135342040  -18.29803890968464  -12.47314536704287
