100
 SCF done       -166.528766317110          0.000482658234
C          -1.68345285682680   -1.94509798527512    0.87745529789683
S          -2.66941846024977   -1.13289507008401    2.03793956107843
C          -1.65411030137585   -1.57777439703209    3.39204157508218
C          -0.58506043012527   -2.33031915205071    2.92627955351169
C          -0.62191871305875   -2.52871596014037    1.50588447709044
N           0.47029737329430   -3.28054214541517    1.20253625250555
N           1.18235520331954   -3.56881951171326    2.31011200840192
C           0.58630579033243   -3.02316812804457    3.33588074025279
C          -1.98263725849512   -1.17636973231156    4.71518787996689
C          -3.12575563305438   -0.48070211119404    5.01814878688355
C          -3.51398738183380   -0.08967029721533    6.30038765075493
C          -2.72778305603941   -0.49602864616210    7.47835260125258
C          -1.55414143015027   -1.15725050571193    7.41345643511604
S          -0.80758231170058   -1.64647113435447    5.94468438455539
C          -3.48052907062097   -0.05679311895198    8.60097570207533
C          -4.64745246189714    0.57043342491194    8.16467272251677
C          -5.43813920916528    1.03291150252988    9.24021157344832
C          -4.86560165962445    0.74871155039006   10.43859738033095
S          -3.35062233620901   -0.08412128550252   10.31617847678747
C          -4.66871166821687    0.58051188576124    6.72609011342474
C          -5.70745797908335    1.17542656744281    5.95317828716872
C          -5.57766337150882    1.67918093336526    4.70654141939437
C          -6.64587244483503    2.24421125659196    3.92099104189158
C          -7.96601017395775    1.92914967867555    4.14453767843751
C          -8.98379277235267    2.48405060991136    3.33876043904444
C         -10.36304174988516    2.32021120647180    3.33257651727785
C         -11.26418414220212    1.53081829132083    4.23172788795637
C         -11.27804280976863    0.03217208594483    3.86962787320399
N          -9.98059110412306   -0.58200514359157    4.08473215657380
C         -10.94207474546736    1.72352765394713    5.72031451414356
N         -10.88814218433428    3.14352831674547    6.05129049961786
C         -10.87303899783836    3.14461180997840    2.26435834514306
C         -12.12076266464812    3.30127299114363    1.78446441876898
C         -12.42806621592927    4.29153738940781    0.71489685512130
C         -11.23088505979679    4.97899817306905    0.13897794469816
C          -9.97913200901364    4.75264373458298    0.57685998354207
C          -9.74389976040527    3.84520739927605    1.63834435659586
C          -8.60233868094234    3.41911124720721    2.28098829932554
C          -7.23483939956189    3.71964641128638    2.06975824125060
C          -6.29544939866141    3.14007590189448    2.85430403657775
C         -13.35722903976654    5.28583723194141    1.36974663701047
C         -14.61362370494318    5.48981593792091    0.97066426134461
C         -15.57723414212865    6.35414898923317    1.60876341781278
C         -15.54617157766916    6.72291723906837    2.92369000783646
C         -16.50176527640206    7.52928070420287    3.55759038551423
C         -17.60823461993967    8.11056148685322    2.77524030946128
C         -17.84275877300866    7.86840885469688    1.46900272903866
S         -16.86357244310991    6.84088632151604    0.50729230385311
C         -18.34316370782248    8.91290453791050    3.68802574286218
C         -17.76125845671174    8.82910830643888    4.94838962672692
C         -18.45908619570828    9.59512887600320    5.90855238869124
C         -19.52898128855023   10.22805199496982    5.36069295355307
S         -19.73804591045916    9.92037304995029    3.66842316425206
C         -16.61381869887066    7.95233179276061    4.89034285116169
C         -15.88299255308803    7.66894318970552    6.07200639312764
C         -14.89949400019730    6.77034168295661    6.33087055886522
C         -14.34305131346806    6.62530862556308    7.62759854634747
S         -14.89926598914700    7.60564244705880    8.97873381202716
C         -13.83854545454990    6.87458003122241   10.11121844103551
C         -13.07516320525970    5.91266744189538    9.50363686422014
C         -13.36022992723450    5.77190910902848    8.10269590726371
N         -12.53234938968649    4.79493400941438    7.65045980209790
N         -11.75314071916900    4.32546621182165    8.64374345487731
C         -12.04997925724225    4.95737640823346    9.74663900754575
H          -1.95667490901779   -1.93231689323207   -0.15680302521574
H           0.77576748663064   -3.62160907837080    0.30814012119390
H           0.99390311907377   -3.13298393938598    4.31985289979342
H          -3.78853032527793   -0.26100195592708    4.19189817336453
H          -0.98954411422845   -1.42989799104494    8.29116795252679
H          -6.37665324904206    1.54739256610197    9.13890818205021
H          -5.23899643759971    0.97898292842206   11.41735713251879
H          -6.65898455330687    1.26886186279607    6.46154464769777
H          -4.59292723957998    1.72951398194702    4.26094014714532
H          -8.22324953648879    1.21817693828076    4.91266274360566
H         -12.28249662980082    1.90206091233418    4.07315881030454
H         -11.63497343973370   -0.06411257271579    2.82876926138912
H         -11.99666265507236   -0.47501174446136    4.52057948056069
H          -9.30652386216014   -0.20212835928320    3.42803515666529
H         -10.03574741094544   -1.58219683179469    3.92814726264917
H         -10.01800935270186    1.18425239968450    5.95967556513697
H         -11.74601401515290    1.27896116744695    6.31496466278331
H         -10.17800161786005    3.59127493805477    5.47752775726894
H         -10.60548506191751    3.24636339070236    7.02332733254207
H         -12.96858496600584    2.76656943075516    2.19172753002635
H         -12.98191332287656    3.79645231452510   -0.09445644121021
H         -11.43127864377522    5.68048483473523   -0.65673277216773
H          -9.13835257046233    5.26190734636495    0.12740268108530
H          -6.95864830315710    4.39963357523733    1.27663460512435
H          -5.24692174153133    3.35265303874848    2.69943804940163
H         -12.94069635669066    5.80720573613263    2.21904912567617
H         -14.97074816158631    4.99524554918496    0.07499072472222
H         -14.72331733350751    6.34581452744673    3.51207816393770
H         -18.67719253430845    8.30053556505387    0.93953477255232
H         -18.19214702814499    9.67957039067782    6.94664480499662
H         -20.23290271589744   10.87344458687427    5.84906728351884
H         -16.20806135080124    8.25984853399078    6.92189817143876
H         -14.50854394554815    6.10504157325247    5.57483983221047
H         -13.84664621091515    7.19544815225347   11.13256095361706
H         -12.37592809206226    4.39626773448194    6.73008549637775
H         -11.54644573854437    4.73296521347380   10.66503921973206
