89
 SCF done       -187.439054832986          0.000489077111
C         -13.39222704136426    1.26006724997333   11.21464309762526
C         -13.08884187406512    0.52630250392635   10.09886097088252
C         -14.11304844208151    0.03092680137526    9.26844399583787
N         -14.99775088669950   -0.34453320697702    8.64540216131856
C         -11.68006518398539    0.35343109271525    9.94131280074336
C         -10.99395019061846    0.97978662028423   10.97530994781195
S         -12.01698475084802    1.76710291430630   12.11491502868824
S          -9.26620971585450    0.84051718499220   10.91078895360044
C          -9.45840919486968   -0.08199036479823    9.45695240244270
C         -10.76841050120324   -0.27269919962491    9.04009291760817
C         -10.82504643918281   -1.02906127565351    7.83288505973863
C         -12.03202519303007   -1.30818283825609    7.17407099443885
N         -13.03503430035414   -1.49589632455868    6.64910104060425
C          -9.56694882819191   -1.39233563153606    7.36811071174407
S          -8.28907991926681   -0.79962281431755    8.42003846086939
C          -9.19899447922971   -2.14154479799369    6.20835946770587
C          -7.89064775313249   -2.21968172234830    5.79016408084440
C          -7.44894140420228   -2.92882158136895    4.67767638712289
C          -8.38512414763660   -3.66378917632726    3.81814800840264
C          -9.71518057161799   -3.72296126299794    4.04115272443658
S         -10.50669403520596   -2.95868435201607    5.35783276899987
C          -7.58656846430086   -4.20850598448216    2.77706740915289
C          -6.25149465889832   -3.83237156912981    2.95565010755987
C          -5.40371720579013   -4.40099631647881    1.97606581026029
C          -6.10549052129097   -5.14353727812090    1.08359255008313
S          -7.81175712759962   -5.20285329386715    1.39432041660107
C          -6.15816599458745   -3.00383760131558    4.12728101837362
C          -4.98594188965512   -2.38123351420671    4.63583232039039
C          -3.92981151154349   -1.95204655869510    3.89803319699940
C          -3.90876411045262   -1.75018334134626    2.48628348898429
C          -2.69095725892711   -1.83408378335513    1.77389582086169
C          -2.62088047109468   -1.75427364183888    0.32805201095505
N          -1.42122585915557   -1.83156310581227   -0.26224410965593
C          -0.34916659429589   -2.08291707048167    0.45409185044498
C          -0.43342480042536   -2.20696414006641    1.87684398368954
N          -1.57875542396231   -2.04966875532808    2.48941775110537
C           0.74158083086358   -2.47211829864633    2.61689628086877
N           1.72760468295010   -2.71203303396962    3.15161853866291
C           0.90498398652843   -2.21677496412786   -0.18108261469076
N           1.94553693190991   -2.37705864029102   -0.63815444185266
C          -3.78769355874369   -1.56344149658300   -0.46302001163781
C          -4.96856748983326   -1.31181469434011    0.27169377939097
C          -5.03949770967130   -1.41024660663452    1.70824262433962
N          -6.26073535079286   -1.12334893960094    2.15679808158776
S          -7.22441096902136   -0.79110561984783    0.91864840828730
N          -6.14402750200552   -0.98559634803203   -0.26167911347448
C          -3.83760755038771   -1.69855950840122   -1.88537751936393
C          -2.82039326870557   -2.30611149003017   -2.59028449631702
C          -2.82827810529853   -2.60337996788382   -3.94125269572362
C          -3.84301809872154   -2.05966327975806   -4.83797353037325
C          -4.94539811440264   -1.42736035675310   -4.37134787495981
S          -5.30568696359252   -1.18320930996421   -2.70569368714194
C          -3.38579849122669   -2.38197538427123   -6.14739724910943
C          -2.18737330443897   -3.10594872039215   -6.07114803355038
C          -1.70492361972009   -3.47340647275886   -7.34779745287146
C          -2.52192673250240   -3.02919625162809   -8.33656007750016
S          -3.90936783096332   -2.15845386705600   -7.76687460765952
C          -1.84657665223466   -3.29855718286541   -4.69441024894202
C          -0.77340707947120   -4.02099812386774   -4.11944357820996
C          -0.89531791290345   -4.52950800690908   -2.86079367257773
C           0.10915624205729   -4.95634580083808   -1.96862006978299
C          -0.12708177073343   -5.12025821099093   -0.59857121003154
C          -1.39624138498544   -4.90941901750175   -0.05248869672739
N          -2.45191853438970   -4.67768098739008    0.34165603277359
C           1.05671364860167   -5.40682623521233    0.12632355390859
C           2.16259909581182   -5.45932819989908   -0.71491797154371
S           1.79353633994862   -5.16893777808624   -2.37385738688634
S           3.66826685429122   -5.76601570154842    0.08431258012072
C           2.80306470591891   -5.81705936120939    1.58791590349341
C           1.43398546350399   -5.61332125923902    1.48189833834608
C           0.80866680555114   -5.65590083683261    2.76420049310549
C          -0.55708543475705   -5.43688814511978    3.01498977668695
N          -1.66485309238654   -5.23955009506625    3.23656250442646
C           1.71491921407793   -5.89226770324370    3.76315879129525
S           3.33193399681016   -6.06150240686585    3.20794906266447
H         -14.37316184897102    1.52895685989510   11.55469935762845
H          -7.15345100804126   -1.67647601267802    6.36768605448326
H         -10.39296368275876   -4.25670334252472    3.39374502440270
H          -4.33492347844979   -4.30048586622649    1.93518292602546
H          -5.72129054029166   -5.68169405298263    0.23959187423780
H          -4.92468556225205   -2.28171451777231    5.71297753260901
H          -2.99991954607337   -1.72252232720334    4.40077902794511
H          -1.94105673185741   -2.55475355365234   -2.01852510923035
H          -5.71764129677887   -1.05461572931768   -5.02626893694188
H          -0.80351060961911   -4.03134503133662   -7.52482961709033
H          -2.40387370122497   -3.15751714678788   -9.39474340208144
H           0.14751225425956   -4.13524102867002   -4.67584375409937
H          -1.88624615765586   -4.55520651900953   -2.42549035894654
H           1.50678635546235   -5.96074729398460    4.81270526435711
