94
 SCF done       -197.262632884862          0.000271667206
C          -1.97726478566257   -7.09208374950351   -1.92964577975912
S          -1.62014166604351   -5.63500530693731   -1.10411235032873
C          -0.84927453182676   -4.96644341211461   -2.49101025687321
C          -0.88131848695417   -5.84232150816663   -3.55701281606847
C          -1.53215781710679   -7.07833210910330   -3.22027450681035
O          -1.69067239710832   -8.09613585626646   -4.06649807928614
C          -0.36778326777645   -5.63256303060967   -4.91344090230716
O          -0.32076784666319   -6.52746514519678   -5.72685163356749
O           0.03542068480237   -4.39647531649746   -5.25395225293808
C          -0.20986989344630   -3.65773527049744   -2.38018010858165
C           1.18480819959432   -3.51579047149491   -2.35545998922348
C           2.12533030808094   -4.64497164269959   -2.44586962720356
O           1.87473316379008   -5.81233532788122   -2.50760225409388
S           3.80109398223822   -3.99957275152279   -2.42679581498528
C           3.26275447813978   -2.29085754875710   -2.27949610958037
O           4.02219487213315   -1.36630242463764   -2.26020852268516
C           1.79369050473073   -2.26314457935306   -2.21531351980557
C           1.04916954399305   -1.09032174100531   -2.05322634209343
C          -0.34279048771095   -1.23125802508828   -2.06147972651666
C          -0.95474690878900   -2.47848183362314   -2.23843342665984
C          -2.42195433209077   -2.43717884173810   -2.30713707008643
O          -3.17472490018093   -3.33326013145785   -2.55444966774138
S          -2.96184700668871   -0.74996912572696   -2.00645583698803
C          -1.28674035460974   -0.12293210995372   -1.84604045240995
O          -1.04980342400407    1.02219079241306   -1.58536045837541
C           1.68562429517934    0.22247762863668   -1.88210284319987
C           1.51717080124994    1.18832040974355   -2.84053507566040
C           2.09087235134920    2.45698515373867   -2.64252653162776
C           2.01175139682878    3.61829220443995   -3.41233357631355
C           1.26087537099602    3.76726900049791   -4.68086390788581
C          -0.15051485774537    4.34134440769895   -4.40560914752615
N          -0.99955841349705    3.28312227237671   -3.90106805949890
C           1.99361685976895    4.61772700914143   -5.75603504033253
N           1.65181448802414    4.26513017651651   -7.11019254899647
C           2.74063874219567    4.63850828992502   -2.69299881115168
C           2.96536791671925    5.93901918009764   -2.96546876032250
C           3.79867621113585    6.78637377139385   -2.06704866585227
C           4.22157689826996    6.13489288730607   -0.79723734641401
C           3.97979506051389    4.83226873146607   -0.53503470799059
C           3.26458804383372    4.04202514820788   -1.45983037397082
C           2.85269574075178    2.71083127872880   -1.43763469656967
C           3.02505022501630    1.68748202872970   -0.48869332197209
C           2.45093209951092    0.47016355107833   -0.71144477213625
C           3.09175862722228    8.10592545192791   -1.86520043512319
C           3.06276269491922    9.02905172758818   -2.81410488460408
C           2.27210457236791   10.25750371458117   -2.77010848549602
C           2.49938724966892   11.30935510889634   -1.88073738103664
C           3.57629827095921   11.30288337230629   -0.87544088786089
O           4.42350944826101   10.47621330549777   -0.70052855170770
S           3.45106740761928   12.79447985996859    0.11098816403650
C           2.03008610196406   13.41064481862031   -0.80479179899659
O           1.46665264811634   14.42155876888883   -0.50282222700726
C           1.71184276698337   12.46680308415099   -1.88618840913412
C           0.67282500128022   12.65583202357196   -2.81323131885706
C           0.46892852440508   11.60996577317934   -3.73022511358654
C           1.22709052098159   10.43860147110817   -3.68357402070277
C           0.83088120131570    9.40709755945196   -4.65331452722239
O           1.27418645767686    8.29474238547798   -4.76064752524894
S          -0.47155174205318   10.05093189557593   -5.68355027704154
C          -0.47471405063377   11.66112949770215   -4.85808455170866
O          -1.11807888122439   12.57720909626123   -5.26955328421652
C          -0.18159796980515   13.82285889771428   -2.82650738175730
S           0.42227521875749   15.45109744428657   -2.90700298684853
C          -1.14432336164893   16.09467032910060   -2.94213316220208
C          -2.11270518588040   15.12507168075005   -2.86701740367547
C          -1.56010036404000   13.80728207492850   -2.81371029191597
O          -2.28730373192195   12.69499360935163   -2.71172021079319
C          -3.55566605829548   15.32554167012750   -2.85695132846206
O          -4.35034964407951   14.40783034342113   -2.76782660405539
O          -3.93788386022740   16.59816514600233   -2.94848554083389
H          -2.48314237909738   -7.88884806519841   -1.42531372954683
H          -1.22872640049678   -7.86879310966400   -4.90324793382319
H          -0.12836824760950   -3.74933472562334   -4.55582097447480
H           0.93949867780308    0.98366364186541   -3.72929765956031
H           1.10440098683974    2.76587271802524   -5.09910118216184
H          -0.58359135607349    4.68723566432861   -5.34911157073333
H          -0.05524003370798    5.21224593416313   -3.73697609472041
H          -0.70658076615355    2.97169241711506   -2.98039821041823
H          -1.96440862646953    3.58420650308988   -3.83770210267089
H           3.07267137431564    4.48598277656935   -5.64303067509922
H           1.75088871013122    5.67385283093485   -5.62528279754382
H           0.66544867451083    4.40327266340858   -7.29475742853340
H           1.89009813245041    3.30239686130478   -7.31801512248482
H           2.55170068479572    6.43315931867390   -3.83053389634601
H           4.71675442807913    7.00802079544876   -2.63783558361230
H           4.75604354895415    6.76074044131428   -0.09950102792372
H           4.31819208080361    4.38384177788937    0.38721236187962
H           3.59776693824062    1.87073504631511    0.40742183617095
H           2.55658645686981   -0.32504864097145    0.01100611647092
H           2.54197547227813    8.22186696033172   -0.94355762703927
H           3.58619522641551    8.86528092350603   -3.74859703658231
H          -1.29949488845880   17.15283028861356   -3.01346608610858
H          -3.23499458980764   12.96198037788218   -2.71607742575909
H          -4.90668682757082   16.65759982884009   -2.93914003048381
