90
 SCF done       -167.497605143874          0.000355150847
C           9.52455321216405    0.02688035223670    3.71023628023754
S           8.86358050988766    0.23493985763635    2.13888632192566
C           7.52869147144436    1.13942645597420    2.77121564193271
C           7.58797049135992    1.24516257739426    4.15029807617611
C           8.75839010677413    0.61440548068788    4.67070619688564
O           9.05074564045919    0.62166484966200    6.00354832084334
C           6.48879843226714    1.78624134997016    4.98815436624585
O           5.35298033841637    1.89885537958485    4.60591146929098
O           6.81328699165342    2.11066273297166    6.24768355027440
C           6.58272523304044    1.72904171725650    1.87870632839437
C           6.08550578733800    1.16525498685432    0.62668741307060
N           5.17188040503988    1.89062877498674    0.04112706319215
C           5.00182049458987    2.98073248343687    0.83732019557944
C           5.91109018650789    2.91934138886290    1.99086104274554
C           5.76969112533060    4.10508046683032    2.79552623239959
S           6.85595367050167    4.63801234812080    3.91282223676158
C           4.62273032213014    4.77118121692750    2.24464346116275
C           4.22043134297453    4.10195174578582    0.99597852607229
N           3.16389235265460    4.74749611640713    0.42670590830756
C           2.88112294359947    5.73373553811512    1.23265833917423
C           3.72936823398997    5.81046626538142    2.41913930714629
C           3.57016675430766    6.67080569104863    3.55544803068237
C           4.12076510243111    6.26362143695609    4.75693583652747
C           4.01690922025975    7.07419378176449    5.89079025501284
C           4.54249604901115    6.90136034293220    7.17011731515183
C           5.45309638769410    5.79730713794916    7.57107816916356
C           6.85413137478874    6.33973496197236    7.90405538180994
N           7.36128101390930    7.09873329458679    6.77356831991811
C           4.90717285977358    4.93459026590807    8.72137214160298
N           5.78635345189508    3.79682413059687    8.92306892473311
C           4.11931743206680    8.04483818931268    7.94120369431531
C           4.34485279418335    8.39872967354910    9.22156864833706
C           3.77733021749547    9.64448565210000    9.80106843341982
C           3.01362834622705   10.49493664167583    8.83611848294101
C           2.79174671625586   10.12897330014418    7.55826373059597
C           3.32199562715519    8.91763771109758    7.06083368126563
C           3.27426458687993    8.31873971088843    5.81365308021351
C           2.68615989155151    8.69403063856569    4.58425438934463
C           2.83836817375666    7.89768749410361    3.49114569068527
C           2.81997905520166    9.28419591494107   10.91255800632646
C           2.84427783437876    9.86348176850890   12.11736666736879
C           1.92328417781263    9.59815503801800   13.17824569871407
C           0.84250694425695    8.60828504392186   13.22674185389617
N           0.16849497569596    8.60129933885168   14.34105515429335
C           0.72690017528792    9.58188740045940   15.11186480033067
C           1.84722325730895   10.21517379980223   14.40349704356134
C           2.45004338540645   11.23241147109901   15.23043253086993
S           3.82851620678005   12.07061936354144   14.91408420515843
C           1.62519472682489   11.25928058205202   16.40787902956928
C           0.60348656728046   10.19631311676553   16.33105477565277
N          -0.14032304312237   10.15943091538973   17.47274306808536
C           0.32822106629876   11.11296948150724   18.22454718886901
C           1.41904391586735   11.87883018930285   17.61958804946097
C           2.02322973629099   13.03113533439964   18.18957804289542
S           2.08937403321517   13.27469411341342   19.91396283789730
C           2.90933590066027   14.75775854220849   19.73320824553659
C           3.11413283854988   15.09536735589903   18.41761732152305
C           2.59029876529808   14.10643118438604   17.52136570121646
O           2.57880688004967   14.22401180710003   16.20145278263412
C           3.76649276645967   16.29729768655884   17.88081995503414
O           3.83629674223211   16.50470758712361   16.68948448500715
O           4.28700933637139   17.17069042658927   18.74947125899009
H          10.44365711081186   -0.51025220350921    3.83989661580592
H           9.84495347696869    0.10234558083194    6.17157836034457
H           7.73257189838770    1.88092577851279    6.46020705046797
H           6.40301092763541    0.22751286097772    0.20478932883723
H           2.05490528841511    6.38721691825201    1.01184927496339
H           4.60469696738928    5.30430741650955    4.82374396345307
H           5.57349281289010    5.13129158142905    6.71000289967340
H           7.47712135117168    5.47694826957670    8.18490086210047
H           6.80428325006757    7.01799140266269    8.76007936415001
H           7.36019359369579    6.52127916610268    5.93798917848826
H           8.31740833372569    7.38944179877085    6.94555963679667
H           3.87017636976334    4.64991211739703    8.47238427326646
H           4.88393416382012    5.50593827229309    9.65358072830739
H           5.84819225663353    3.24730687558355    8.07025064242612
H           5.42254604169802    3.19464897626028    9.65318222503991
H           4.91850649100776    7.78007760205682    9.89648888686551
H           4.59307363330503   10.23549806907959   10.23941833423507
H           2.61820777905667   11.41661481461635    9.23449685915067
H           2.22422957108398   10.76518962158944    6.89458736810180
H           2.12898846977604    9.61710349700823    4.51834810546636
H           2.41070727509229    8.19164113007983    2.54453150793990
H           2.06647651284781    8.55618440163225   10.64995501184144
H           3.59969635185127   10.60492361297644   12.34754148236804
H           0.59729815070717    7.91121142710991   12.44484700827308
H          -0.08394459391736   11.30374319608266   19.20070964511781
H           3.18341223406987   15.29707814091655   20.62043728561339
H           3.05340807225366   15.05264534840900   15.95850566864743
H           4.18365467352945   16.89994472552101   19.66997924607786
