102
 SCF done       -166.115583233099          0.000750010431
C           2.12693329432504   -0.08361709675421   -6.93494514305336
O           1.64438763029743   -0.91303378493187   -7.87469513653559
C           1.93951326678483   -0.37673258527467   -9.06695315330287
C           2.61058723239444    0.79671201614799   -8.92606832383393
C           2.73606147815437    1.00196225708293   -7.52067674341179
N           3.36756377857659    2.01305895736630   -6.83529187659737
C           3.74421171571892    3.23649901191716   -7.29082986001534
C           3.41293492510795    3.89159525196692   -8.44210732995935
C           3.95137912598624    5.21507348985542   -8.35103967809991
C           3.82882978937504    6.19635818857316   -9.33811191537206
N           3.71593440726189    7.02177306318746  -10.13114225130991
C           4.59123081150156    5.38832872738167   -7.13138648628028
C           4.52376430288997    4.16999062847858   -6.42759282756302
C           5.11551273967944    3.85463190568885   -5.21385895673533
C           5.54110500940743    4.82291292041168   -4.17907795662581
C           6.18851052184534    4.11231535664699   -3.19576084557871
C           6.19614418179181    2.73226031626648   -3.56190175961586
C           5.52065982664782    2.57291917513125   -4.76208010671455
C           6.78795880012346    1.70695860492775   -2.81707776247603
N           7.26421229243820    0.86089518349989   -2.20221212701775
C           5.18147458403169    6.19617527351674   -4.17083865651574
C           5.73186615080748    7.13386080991938   -3.35846973776096
C           5.40064185245798    8.52804253928602   -3.34852705460817
C           4.45185287248751    9.08003362245841   -4.19440658344391
C           4.18063711986297   10.45394278536714   -4.14223980224095
C           3.28137456455735   11.22916097609865   -4.87277613665416
C           2.30228368078418   10.79101471143078   -5.90900853672771
C           2.95140382134994    9.98071502041157   -7.05935990202832
N           2.96696583356219    8.54817672564627   -6.81284127484132
C           1.14912984578009   10.02048421867708   -5.23650468721842
N           0.21402083292349    9.52404636530563   -6.23383921799814
C           3.42227293958830   12.58388666305614   -4.39725201454229
C           2.78019094935805   13.71825902719947   -4.73815000200248
C           3.09689215089438   15.02272351428242   -4.09231381342546
C           4.15662737513125   14.95460654775774   -3.04436007226637
C           4.78146245009452   13.81240037429414   -2.70293624362414
C           4.45105979369053   12.59725813566441   -3.34921438570292
C           4.90243191118619   11.29967103203581   -3.20327221518332
C           5.86818309596572   10.71487598534221   -2.35251144098808
C           6.09864358132591    9.37929403008384   -2.42717932722454
C           3.40651099681495   16.00774499544399   -5.20116072399054
C           4.61575636919084   16.49884607219028   -5.46056287824165
C           4.88033455600736   17.41646504824795   -6.54687954404644
C           4.31113694929504   17.39028272209439   -7.78183029090181
C           4.92882452436299   18.41520137027320   -8.59872985882990
C           4.56607998271044   18.70065572419877   -9.91837881094514
N           4.26687907880519   18.92292244525647  -11.00548831765321
C           5.90573051398763   19.03737834620778   -7.86537635039909
C           5.90888538525410   18.46723033755850   -6.54850456810830
C           6.62611937786829   18.90193349490403   -5.45449216727141
C           7.83484869273862   19.77054904993223   -5.44766311148925
C           8.09016651215430   20.09781588209191   -4.14150703396210
C           7.10988964885700   19.46091616796548   -3.31018038805550
C           6.25772750954395   18.71152915884015   -4.09489902906793
C           7.04184559784268   19.58181691532905   -1.91728078894508
N           6.98639663755050   19.67222931178919   -0.77330987411341
C           8.62456436440348   20.06258343998460   -6.59002864370192
C           9.60748789781804   21.00222789788781   -6.61746153153434
C          10.42915339289962   21.32690254561544   -7.72158627742094
O          11.21832310192429   22.43885212778984   -7.61273667749102
C          11.88420786989227   22.58146573945292   -8.76023467219536
C          11.57773562070476   21.58768120903003   -9.63898740908246
C          10.63828664674230   20.75321714869421   -8.98244175762534
N          10.04129594133779   19.64776415389047   -9.52378207838960
H           1.99218396276573   -0.35721074477030   -5.90746006204840
H           1.62819934319871   -0.91411430446090   -9.94048868059706
H           2.99082711199960    1.41390719146216   -9.71122434187227
H           3.52886273888204    1.84000247990193   -5.85253524216821
H           2.82363741130989    3.53976849929788   -9.26405871947931
H           5.14223998375003    6.26119532849173   -6.84321830115407
H           6.59476059074501    4.49386644367568   -2.27853617936244
H           5.47335205636855    1.64928480483909   -5.30953398224241
H           4.41113858730959    6.49133854429670   -4.86715698752669
H           6.51244668964057    6.83005188989298   -2.67287593745697
H           3.92474031161820    8.48825258881284   -4.92747490463168
H           1.87408864800307   11.69047773498079   -6.36541374555822
H           3.98612822240650   10.31549431585120   -7.18014092209966
H           2.40910803015489   10.22701295947706   -7.98437674861956
H           3.43720299444795    8.08877555614949   -7.58639954357824
H           2.00554822970908    8.21786756764087   -6.80066105014243
H           0.68214188254436   10.69114298334166   -4.49422164980119
H           1.55661842360776    9.16166783964348   -4.69968472951626
H          -0.20431664260501   10.29677771863060   -6.74214191217312
H          -0.53562360306247    9.00793814790615   -5.78631741837194
H           2.02251819738927   13.73779320263793   -5.51010479726086
H           2.17247531002029   15.38502833094461   -3.61100164210840
H           4.39025714690367   15.88461985746961   -2.54766179648060
H           5.53553362758996   13.80695035149060   -1.92931443166156
H           6.40939006494254   11.33462494015360   -1.65253475901830
H           6.83259873285395    8.92217496943253   -1.77849671283606
H           2.56045851760307   16.29750252374620   -5.80896221807041
H           5.46008852955377   16.21617009473194   -4.84586513164885
H           3.55723920929249   16.71233213377448   -8.13595671025198
H           6.47365739877438   19.88922599729962   -8.18569012682370
H           8.90119254123820   20.69081654712401   -3.76436753628892
H           5.39036446398709   18.18542924794546   -3.74754463037096
H           8.40721749994923   19.49976131155460   -7.48340552744008
H           9.77750453267147   21.61695312404635   -5.74456285567747
H          12.54939070884159   23.41873178131432   -8.84202354179839
H          11.96539457690200   21.45573271644530  -10.62822941994490
H          10.46915292976001   19.29633021377333  -10.36576075089067
H           9.72598333435842   18.93631386058150   -8.88499222471479
