116
 SCF done       -210.543913437031          0.000582142289
C           8.18405241645365   -5.06786016224754    4.26676991480381
S           7.56697894739623   -3.47524170061189    4.28276035995378
C           7.23752044657191   -3.54181280094796    2.56889121928458
C           7.57823929538023   -4.77871200469094    2.05143622697448
C           8.12801879855997   -5.64322481777315    3.03058558794198
C           8.59106472166859   -7.03643956442959    2.73781939011008
C           8.77858809056415   -7.22809834733352    1.23628627538878
C           7.52954628229113   -6.74794291953284    0.51021809413750
C           7.37962387944206   -5.22372466128852    0.62369773114760
O           6.14805882625862   -4.80297603300811    0.07709612636364
C           6.71442775006270   -2.35139179489341    1.98152693957914
C           6.67553936816031   -2.05359369228085    0.66945215165158
C           6.17023392822489   -0.81297464157041    0.14625608269337
C           6.84673872135912   -0.14545973515209   -0.89610958722629
C           8.07133415700865   -0.64889751777293   -1.52974905724195
O           8.70111319999562   -1.63447901662285   -1.27944731449405
S           8.56846213353572    0.49720438341903   -2.83398399879612
C           7.21169418933924    1.62013314801356   -2.50953318659697
O           7.01925266232687    2.61833553957855   -3.14214164343357
C           6.41589206377456    1.08591368746622   -1.39260578662955
C           5.29906417267256    1.74705022304388   -0.87550331578748
C           4.59173870872472    1.06626511966225    0.11709427506808
C           4.98906686652626   -0.18572448971482    0.59899713769140
C           4.00638875414967   -0.80732425857819    1.50037231083001
O           3.96750129572354   -1.91740587104217    1.94091361847997
S           2.68165915732840    0.37902726942614    1.82982908469621
C           3.36661231154918    1.61144283892879    0.72666047980698
O           2.86824987667329    2.68465745462687    0.55126509531546
C           4.91756850693838    3.08244318961708   -1.36719761519054
C           3.87858528670282    3.24066057340566   -2.24389249461644
C           3.60118553965796    4.52340721294252   -2.75773363309423
C           2.65080319683838    4.95252546488082   -3.68296466427691
C           1.61162907292497    4.12081361212395   -4.32849016839472
C           0.19119799607126    4.69152523323009   -4.12953526110265
N          -0.78156759989278    3.76910278762306   -4.68436478019806
C           1.89639696276520    3.92481840250528   -5.84851720127420
N           3.02478532690275    3.08595835279900   -6.14576329802728
C           2.89598789436486    6.36150197062400   -3.90656953718555
C           2.36682975503596    7.23731887108738   -4.78277334615460
C           2.83686062486738    8.64998595841039   -4.84706998403482
C           3.83247181265406    9.03192925468811   -3.80601338413724
C           4.39020014222883    8.12919024094430   -2.97262698674103
C           3.98372010390018    6.77797897180037   -3.01618053803721
C           4.41569143147750    5.64453659784712   -2.33352823608953
C           5.45114725834911    5.44875022467745   -1.40210227572943
C           5.69710443351256    4.19088976629791   -0.93858425357076
C           1.60432763509446    9.51946863289662   -4.87049835769280
C           1.11849248853297   10.12941657080632   -3.79976163921323
C          -0.09820173569533   10.93681949599721   -3.83354240937037
C          -1.34475135888820   10.43314544885843   -4.22561799576136
C          -1.59782688831743    9.02112293812476   -4.54664158334247
O          -0.82504656643823    8.10336373199692   -4.59399965812895
S          -3.34669905086387    8.80103613792332   -4.86502236552926
C          -3.72575800620461   10.54422174757992   -4.60694168873976
O          -4.83687015150516   10.97392499437846   -4.72011133596309
C          -2.48936669648080   11.24640779255674   -4.25512153542081
C          -2.45083600634325   12.60432719095733   -3.89878007649992
C          -1.19883967240351   13.10136780922476   -3.50593279020575
C          -0.06352230702104   12.28699316722328   -3.46796473727132
C           1.17343785882720   12.97303109502353   -3.07240469472551
O           2.27653139928297   12.51132333524806   -2.98353302772424
S           0.80101618195959   14.69470136746727   -2.74999127348352
C          -0.93940542293459   14.51365202454496   -3.19791354165009
O          -1.68309107909024   15.44666676695414   -3.25657071205588
C          -3.63292642364607   13.44628167385051   -3.89728110865948
S          -4.21643740751189   14.08729925884129   -2.39491145447058
C          -5.51631382216977   14.90643752547167   -3.20501919525340
C          -5.47066700947256   14.68622576697534   -4.56363578748955
C          -4.39887517195031   13.85311209958099   -4.95864016016198
C          -4.12622410933535   13.50721131943222   -6.38718361678233
C          -4.79233223459875   14.52741677504505   -7.30513304269710
C          -6.26564692472469   14.64227565957698   -6.93691519666095
C          -6.44125570006399   15.28460125282814   -5.55487679710198
O          -7.78350441391498   15.19865340460068   -5.12436864548370
C          -6.46656764673202   15.69834508139148   -2.47165327614575
C          -6.42527295340170   15.89700737194316   -1.15725603985876
H           8.55617367454175   -5.50422795920139    5.17284001087764
H           7.84126957545499   -7.74503174330952    3.10465196318163
H           9.51968569308626   -7.23783317118226    3.27566932454538
H           8.96196398625232   -8.28077422591086    1.01691262260721
H           9.64204308756084   -6.65418920102116    0.89397073983482
H           6.64667163627777   -7.22450029916380    0.94605784715976
H           7.56506307587073   -7.01271951170598   -0.54704626793352
H           8.14520976483547   -4.74555703696543   -0.00427676711368
H           5.43422387124712   -5.06399087079828    0.66979699587827
H           6.39421004019900   -1.60819218455625    2.70169839648675
H           7.10461448787995   -2.72518536725970   -0.05548058241337
H           3.29920712441813    2.38463370667153   -2.55821544078465
H           1.62385304244784    3.12452151675646   -3.87034338612291
H           0.08462326163676    5.64395842164273   -4.64752916930677
H           0.05001887008049    4.87858440602931   -3.05304479577196
H          -0.87470544952150    2.94558608016937   -4.09941595403687
H          -1.69008893037892    4.20918678376689   -4.75904471630252
H           2.06725412529559    4.89564538230374   -6.31578496062348
H           1.00187576584526    3.47417800109026   -6.28427313994616
H           2.89976836936831    2.14862405272714   -5.78294013585732
H           3.88831879762023    3.46626817836997   -5.77547817982019
H           1.57945440424709    6.96962013712278   -5.47046669500645
H           3.32911899122648    8.77625617569284   -5.82656388712158
H           4.10808517227778   10.07470644271794   -3.77360560174711
H           5.14159961297596    8.42953247544347   -2.25756128030992
H           6.05037494764324    6.28499634823580   -1.07559551616067
H           6.49712290507379    4.01131437232805   -0.23541174366015
H           1.08952752149296    9.57985689119765   -5.81921684035854
H           1.64800850075221   10.10096797681698   -2.85766224460137
H          -4.54082705326354   12.51461649948986   -6.59165385715102
H          -3.04904809926275   13.46222026140474   -6.56661006036749
H          -4.68791253299023   14.21290200620842   -8.34471049000031
H          -4.30767918635615   15.49948245543528   -7.19228713883751
H          -6.71062882139039   13.64304079907435   -6.91884464827154
H          -6.80759540587166   15.23869148057098   -7.67213962395995
H          -6.24686256395874   16.36359152283581   -5.62732559397345
H          -8.00777584264911   14.26750940445329   -5.00914932578037
H          -7.24876937786720   16.13969949328964   -3.07358378590198
H          -5.65262564067521   15.46037006404792   -0.54480984399074
H          -7.15868697272132   16.50269047853371   -0.65556903804647
