120
 SCF done       -193.019471846764          0.000556696976
C           6.51099592042402    0.87252262337592    5.92776274412766
S           6.52013472693292    2.14320543823317    4.77984021508363
C           4.79427855070437    2.00331831636555    4.56181549167846
C           4.28353217414521    0.98963601540225    5.35404822160915
C           5.26478384601509    0.35709179127336    6.14638017360503
C           4.92404688335932   -0.72942588715313    7.11521402003617
C           3.46275254465182   -0.59223515919263    7.53874622701492
C           2.56897274993590   -0.57690949201040    6.30177373635496
C           2.82093695914774    0.65121340867754    5.41818623233574
O           2.06586925243387    1.78066339454885    5.84735509987223
C           4.05132454048413    2.87588454293488    3.72398320363180
C           4.58179787724583    3.92918501345775    3.05999639439786
C           3.85942106999864    4.84009033823849    2.24371385644088
N           4.49440522294649    5.46450669429397    1.26095323767799
C           3.56414807676377    6.18923398613231    0.61651268262713
C           2.24122197078734    6.04676617380518    1.24689978914494
C           1.25038764898252    6.86215678738562    0.52776068251942
O           0.05962045644648    6.98111840058184    0.74338866266024
C           2.05160471480936    7.49618165306497   -0.53124200495978
C           3.45522319262824    7.05586888721720   -0.44599741532235
N           4.20310136949561    7.65073031717839   -1.40644133765063
C           3.36689738172436    8.42128405371794   -2.06212323442490
C           2.01034880228081    8.37914767304761   -1.56456004031514
C           2.42023716838382    5.21269442398774    2.32619738104808
C           1.51679708786119    4.87770971690429    3.37896489439412
C           0.21334296371290    5.23769889525429    3.33432799390162
C          -0.80667446033122    5.03462910086233    4.33060807822318
C          -0.60388386248551    4.39510891495962    5.53814479837189
C          -1.66149489202024    4.26600958860830    6.46423334909727
C          -1.72369224022751    3.73000100903736    7.74816357463642
C          -0.67027679588386    3.03422537551190    8.54598759453635
C          -0.36049376466523    1.66657892650729    7.91351926877288
N          -1.57158704242690    0.86374613540793    7.87382914230985
C           0.59445699471691    3.88462805447055    8.73378774405592
N           0.25530502691885    5.05779270896503    9.51993873834406
C          -3.09201165694973    3.84592486701188    8.18741418661775
C          -3.69575963716769    3.47243451420845    9.33245377355939
C          -5.17265954858678    3.53214168669154    9.47622193596265
C          -5.87663051579146    4.31334672170213    8.40819035214830
C          -5.24687647473122    4.73124405427232    7.29089822878449
C          -3.86556292179603    4.49040015235876    7.11819921719759
C          -2.98316471713841    4.76267478101714    6.09049803192856
C          -3.16944130414108    5.39603579589190    4.84091056062705
C          -2.11259905892532    5.53888632514378    4.00478959960883
C          -5.74462784032009    2.14074934526973    9.29514209339175
C          -5.18839881089068    1.23604251699173    8.47512327651397
C          -5.68365476695647   -0.08597931956841    8.27986539976214
N          -6.70619819687335   -0.59565054223847    8.94908931744519
C          -6.79762572314965   -1.88230147560080    8.55333196639026
C          -5.74923989302778   -2.22107612429238    7.57763640370498
C          -5.85954142678953   -3.62709361141708    7.16834783208803
O          -5.14508715988208   -4.25277389567527    6.41196389772418
C          -7.04000755803418   -4.08981764778636    7.92205331349160
C          -7.57496064738762   -2.99821930101647    8.75811365623478
N          -8.66408755740755   -3.41447702641438    9.44978955422744
C          -8.83567487282186   -4.66628694123645    9.09540653392404
C          -7.86134931139725   -5.15014502744019    8.14265554183010
C          -5.04144353144057   -1.06566534212371    7.36832298035577
C          -3.95982581031209   -0.74933125520116    6.50238378081054
C          -3.22806739245289   -1.65750521141949    5.81633806487182
C          -2.15622127567618   -1.29453153577528    4.94695162479706
S          -0.84766727636415   -2.41027588191133    4.69248573523429
C          -0.02165061098870   -1.30042553009643    3.63638331516124
C          -0.74701636266379   -0.13115537521943    3.48938569503040
C          -1.95414252946162   -0.13244019841243    4.22160182458435
C          -2.96154533756042    0.96076793026013    4.06447663280361
C          -2.81004495056524    1.57526757460337    2.67545083189457
C          -1.39967329061321    2.12336812434476    2.53563753460222
C          -0.32379184503823    1.03074449246272    2.62188923734521
O           0.89634783658969    1.59742043351002    3.06795212803637
C           1.20771463162756   -1.77977358511389    3.06050957597079
C           2.08628692314680   -1.11324404862081    2.31262606700519
H           7.43106592885356    0.57492030037322    6.39139137293309
H           5.58806731581480   -0.68346740590483    7.98034153751371
H           5.07096993037946   -1.70169925552536    6.63558415666391
H           3.33314003920395    0.33156148081937    8.11029126979026
H           3.18478145404941   -1.42511207465907    8.18586478237612
H           1.51527341862836   -0.58020440341105    6.58640685299920
H           2.75747428570188   -1.47431456725988    5.71063272481903
H           2.44979007044237    0.44489884024363    4.40927087017887
H           2.38047008682470    2.03478473318243    6.72301871151923
H           3.00331741499177    2.63595680393247    3.61646507012575
H           5.65402245260509    4.08418677342184    3.07114243406091
H           3.71179010964387    9.01270856567197   -2.89265127916705
H           1.18300308052898    8.93749600881050   -1.95634209392258
H           1.92938198122543    4.36445278650344    4.23539883493976
H          -0.12912338556212    5.75403322043473    2.44734464105377
H           0.36655626587738    3.98231910620596    5.76909552266370
H          -1.06896242434344    2.85546962701351    9.54952855228929
H           0.45647166658136    1.19004188853195    8.48438486398817
H          -0.02632487135742    1.80273226117268    6.88327415211646
H          -1.88476011045320    0.65062067069396    8.81602806492986
H          -1.39384992921834   -0.01892928101972    7.40695450920315
H           1.03727081376629    4.12688840550647    7.75564955657123
H           1.33115713815913    3.30942951902902    9.30525105498494
H          -0.44069694022772    5.61103650622023    9.02969289636990
H           1.07178705626637    5.64083741031924    9.66566561683118
H          -3.15187558309239    3.02737102538163   10.15343509578266
H          -5.44641905025198    3.89787908459859   10.47160068721453
H          -6.93420249475747    4.46990669664847    8.54981071982535
H          -5.78849850814906    5.26414147357711    6.52287275978734
H          -4.14800200933297    5.76559006391644    4.57275987796178
H          -2.23111375284296    6.03324738913868    3.05233941675591
H          -6.66397917452504    1.90763338617020    9.81099445249071
H          -4.27935018546898    1.48618908331020    7.94646289646613
H          -9.64535782370581   -5.24125778126272    9.51059612082115
H          -7.83050624166739   -6.13850355033626    7.72800292151842
H          -3.68893472257713    0.29231030346486    6.43668678510162
H          -3.41986060175849   -2.71481726487773    5.94647153622359
H          -2.80271327729242    1.73738630834352    4.82054549094152
H          -3.96701073103558    0.55702921620130    4.19888348174261
H          -3.53254951130882    2.38194839985786    2.54490162500076
H          -3.00022192948513    0.81712166891394    1.91284792063591
H          -1.22631705109438    2.83268025300669    3.34764359423803
H          -1.27949362910597    2.66538139649887    1.59720049072043
H          -0.10292556798580    0.64559561223433    1.61805176019289
H           0.77426301662893    1.90334572752966    3.97756023118578
H           1.39984195852871   -2.82323521043917    3.28390796316288
H           1.98323459554462   -0.07345335524589    2.06559912568114
H           2.96020773243816   -1.61186610688250    1.92911147247100
