104
 SCF done       -177.387086619325          0.000512086958
C          -2.12152540028771   -9.39079729261015    1.34303775968163
N          -0.95045648507790   -9.30967422217825    0.69511993538365
C          -0.51645956772886   -8.09640910574979    0.65542872572480
C           0.66762878796152   -7.41270750133848    0.73306719780498
C          -2.61910700792845   -8.26110493441655    1.93070208396454
S          -1.85281249816322   -6.85379019602493    1.17950030549030
N          -0.71757426626698   -5.87718989165844    1.86522104627304
C           0.49553110737916   -6.17543855129873    1.39609171379890
C           1.58340125301376   -5.26235213607256    1.61751611668798
C           1.42915803850286   -4.07172223462525    2.23824460854828
C           2.51114517379305   -3.17196975528653    2.44944382623787
N           3.74317072348063   -3.44698893569716    2.04354486830821
C           4.49700478918247   -2.39241202053486    2.41024608269959
C           3.69654797202483   -1.37188006318315    3.09958173814597
C           4.54199277561817   -0.23376210001373    3.48391193769551
O           4.22720961792589    0.78593123482590    4.06479970021252
C           5.87248543136179   -0.63331587441828    2.98913961947889
C           5.80095614932272   -1.95623366101105    2.34185398427067
N           7.01952841592054   -2.33234428627606    1.88344393999331
C           7.82316597718676   -1.34466612097490    2.20008266276820
C           7.17289791409346   -0.25170912164946    2.89147218371856
C           2.41018645146956   -1.85836453117904    3.13243983495904
C           1.21370172340690   -1.30705899595085    3.66482133945358
C           1.17192788073692   -0.10901658932519    4.29517423766666
C           0.00254381789964    0.52098997355468    4.84204205248447
C          -1.24072443060354   -0.08264304961568    4.85972971595392
C          -2.35319707879231    0.60182048808292    5.37730900022284
C          -3.69306976526489    0.23297619747851    5.48525291680747
C          -4.36229902057978   -1.04625921864422    5.11999226396758
C          -4.68302693070872   -1.11314805369489    3.60808131822012
N          -3.46756648976318   -1.06329928472028    2.81781030403602
C          -3.57687865182561   -2.30534438003749    5.52818961182436
N          -4.50903835824536   -3.40892030875449    5.69575807302516
C          -4.39303237393727    1.37307938865759    6.02533964902991
C          -5.69935999990688    1.56912657244495    6.28763241739987
C          -6.20048250757343    2.88789482418826    6.77624474580812
C          -5.13568590443580    3.88213060208539    7.09921859317163
C          -3.83001830653516    3.66230695051155    6.85133022131307
C          -3.41025027859676    2.43644868402645    6.28439498814845
C          -2.17884711492981    1.95781037618263    5.88357953132264
C          -0.89157185793505    2.54403316129067    5.87945071855006
C           0.15693949246185    1.84247556913500    5.38107248487410
C          -7.10706140605369    3.36623332636434    5.66861491176964
C          -6.72385030635985    4.22050203341297    4.70904378103343
C          -7.60713579330233    4.61844691078514    3.65893194505535
N          -8.85485895619458    4.17538459038411    3.58737075272854
C          -9.38859977548686    4.75260129229742    2.49445718606901
C          -8.41580567049440    5.62947571122365    1.82191399260487
C          -9.02079688392108    6.24787743422892    0.63170269355977
O          -8.52022802902002    7.02206437223377   -0.15784655470303
C         -10.38546400790429    5.69269755061569    0.63636525688100
C         -10.56769586368849    4.78668259895460    1.78774218724371
N         -11.82025712057194    4.27077064982029    1.79761315458280
C         -12.41180537620250    4.79020645184042    0.74723155926021
C         -11.57448261272621    5.68469164438478   -0.02172824217456
C          -7.26114391361764    5.54921056777679    2.56026853526517
C          -5.99550397948050    6.17996212264390    2.37945940022327
C          -5.73975315036133    7.06720826532436    1.39648680754719
C          -4.45177964796251    7.68556971441255    1.24027061852061
N          -3.44819216144112    7.43079607306072    2.11903862801794
C          -2.37864702862999    8.07462495960130    1.81694233790459
C          -1.34311559298274    8.72752930504948    2.43492900157355
C          -4.19613049200882    8.62739061555064    0.25916762801641
S          -2.45760034408924    8.81030592594144    0.06780293129267
N          -1.56180022578475   10.11430905101561    0.54629332851599
C          -0.92285400449426    9.84189780590988    1.67865293972788
C           0.14691498852240   10.71748855344056    2.12510113259051
C           0.54273179079301   11.79412883594126    1.45566812980972
H          -2.58045403894963  -10.36147857135922    1.44691905639942
H           1.62095892903689   -7.80486545233210    0.43719156310465
H          -3.59240560556679   -8.15180526666219    2.36608872180529
H           2.56146916668855   -5.55268006082224    1.26230862329987
H           0.44492434081517   -3.79367669178038    2.58571462206897
H           8.86781521349298   -1.39205902103488    1.94552818686238
H           7.65226784130631    0.64432057656253    3.23347061696997
H           0.31316335134667   -1.89021602843715    3.53589766117380
H           2.09491980476841    0.44836076942911    4.39199703600986
H          -1.38078593934722   -1.07007357363322    4.45570790778556
H          -5.32526068746124   -1.08460144709280    5.64062702218659
H          -5.39585872034491   -0.30725557363306    3.36536778804883
H          -5.16731281172150   -2.07494388087624    3.42709126129744
H          -3.08130726924202   -0.12517882665824    2.81674471922924
H          -3.65574503703644   -1.32725626733617    1.85819786631088
H          -2.98522737940555   -2.09095938415201    6.43349943867543
H          -2.89728153828012   -2.57537931353977    4.71939638157872
H          -5.07609589569366   -3.27414133604586    6.52686373953521
H          -4.00740981954729   -4.28304230649999    5.80230069574124
H          -6.44616684138253    0.81053895348620    6.09841374915798
H          -6.82517923564088    2.72519629270944    7.66534971525038
H          -5.47762598488276    4.81769126557686    7.51472133993122
H          -3.08931255994932    4.41356308318174    7.08328023216469
H          -0.76064639769702    3.54319209053790    6.26778140475551
H           1.14665136292073    2.27443056616735    5.36695013559939
H          -8.10682877206650    2.95801739988223    5.63261352424997
H          -5.72626144798313    4.63591108093155    4.71106278160152
H         -13.43407022142862    4.53989668220499    0.52190299860504
H         -11.86908280900522    6.20674843751537   -0.91057852190763
H          -5.20088826597860    5.93899268871350    3.07184108577628
H          -6.50311749677550    7.34492867230607    0.68371800347777
H          -0.97915497838991    8.49747492459620    3.41760940864209
H          -4.84093341882935    8.83922306226376   -0.57078753791426
H           0.61651035325472   10.43120977054544    3.05659717040353
H           0.06686051539522   12.06605462446185    0.52933315571033
H           1.34321865943861   12.42113409308236    1.80890034836501
