130
 SCF done       -218.021104035160          0.000619048152
C          -8.47627464076923   -7.60218672428114    4.09203419268487
N          -8.91103008844133   -7.07918783331701    2.92829551914823
C         -10.26697403467734   -6.96805248408902    2.46544883466976
C         -10.76766703085223   -8.28950420469198    1.88567769649652
N          -7.89815191108266   -6.70159884355459    2.15616869062514
C          -6.78902695689080   -6.97323624584816    2.82646530751795
C          -7.09772939686073   -7.55302025133477    4.07588062443468
C          -6.16245663337764   -8.02715533521203    5.13861202556800
C          -6.08834528050350   -9.55465523099920    5.18068145430186
C          -5.44777730476227   -6.67620546399855    2.24604534241174
C          -4.82632361281597   -7.93962129139384    1.64708674724706
C          -3.47244799155155   -7.76713598983767    1.05880175955533
C          -2.78459545986432   -6.62776759611664    1.00293115218009
C          -1.44389078004796   -6.51470743493742    0.46202978092655
C          -1.04972394214192   -7.05079939444575   -0.77886953866335
C          -1.98310493842872   -7.62973605735004   -1.76018853752082
O          -3.17438478932715   -7.69067837342961   -1.73755841332721
S          -1.03691272846399   -8.23504554546524   -3.17619759345518
C           0.52317457560126   -7.67778849669084   -2.50666388958990
O           1.56560902759750   -7.86723738336990   -3.06648984885107
C           0.27735452900736   -6.99572665403779   -1.22113486538608
C           1.28324948185335   -6.36152966798857   -0.48175654688532
C           0.87707009271839   -5.75651004557898    0.71162333915865
C          -0.43737497117952   -5.83971433563241    1.17535603968800
C          -0.65705885803578   -5.19212062436284    2.47780237110073
O          -1.65340896847369   -5.15621406678283    3.13795390162015
S           0.87616766975535   -4.40978597966990    3.00684732709738
C           1.78105746065482   -4.95864041016479    1.55705302587272
O           2.92483928979368   -4.67243437496453    1.35664319225942
C           2.68636338745610   -6.35510672092577   -0.91766741945377
C           3.05160794778027   -5.75404907809078   -2.09385418497941
C           4.38528100909737   -5.85154968099283   -2.53076276520683
C           4.98622347597056   -5.43239000090436   -3.71750764631532
C           4.31196859614087   -4.73629086104136   -4.83675514466964
C           5.04300685452145   -3.44724829312992   -5.25742604115295
N           4.96255896356250   -2.49754938349204   -4.16280180121210
C           4.12533085422673   -5.70148927571747   -6.04954466681993
N           3.16492615251499   -6.74765608647411   -5.84215257814050
C           6.35891766200348   -5.88891319689419   -3.66937756223776
C           7.34803295605650   -5.86979755666955   -4.58543871169915
C           8.70607631283274   -6.39730851451126   -4.27604816204728
C           8.85752204435286   -7.00064371959615   -2.92111662909152
C           7.83870531562525   -7.07176851571676   -2.03961848206102
C           6.57223463016936   -6.54559867788301   -2.37409510522541
C           5.35381681521866   -6.53977901503909   -1.70190842894994
C           4.95410096395408   -7.10017047818955   -0.47475351026630
C           3.64524812379737   -7.01847691551059   -0.10328584001551
C           9.64165682594120   -5.22468080094009   -4.45670431604880
C          10.49277645923486   -5.11023079665020   -5.46504890803519
C          11.33970232197581   -3.93694238125211   -5.67322819122280
C          12.73291760266426   -4.05090447840279   -5.70333173866017
C          13.43348602353465   -5.32625762076378   -5.50541151039530
O          12.95328048723864   -6.39931014117854   -5.27089888040110
S          15.19606048914948   -5.04645210371599   -5.66285203286484
C          14.99696277821592   -3.28114780797212   -5.99585014809632
O          15.92094882317725   -2.57344538151681   -6.26502091120896
C          13.56874359662048   -2.94955807510027   -5.91269262791882
C          13.05473428803656   -1.65502555183753   -6.07374080284336
C          11.65761974039840   -1.54076699959202   -6.04703271571900
C          10.81910587120705   -2.65245205157271   -5.87138896857225
C           9.38611049145021   -2.34339609664352   -5.95838176457739
O           8.45063673594169   -3.09741147911077   -5.95203316413195
S           9.17901218722156   -0.57244608057565   -6.12315433730427
C          10.95755167350105   -0.25946688734991   -6.15783124479441
O          11.41118018689785    0.84285719787014   -6.24752049715106
C          13.94328807127544   -0.51427114990528   -6.20694754285775
N          14.10685857926303    0.22514645048944   -7.33339090596326
C          13.49673048182853    0.03906053090034   -8.62404007718371
C          12.81076463478776    1.32173861753341   -9.07953735592907
N          15.02016920767860    1.16433527503191   -7.16114111968837
C          15.44140345071868    1.07953606429239   -5.91064546350610
C          14.80320410847700    0.01088543536629   -5.25078784044419
C          14.92574729204003   -0.41102544946411   -3.82634220498626
C          13.86570904335317    0.27545896478739   -2.96268161747879
C          16.50349390860542    1.98073689238570   -5.38464734762936
C          17.90718253510642    1.45202902575871   -5.73713531460661
C          18.16111674501194    0.10816170950541   -5.13225428367706
C          19.03588103347233   -0.11742466427470   -4.16972979312538
H          -9.15708932237815   -7.95170471566092    4.84259807737351
H         -10.27782964617139   -6.19380621494780    1.69552533790126
H         -10.90187441216164   -6.65567165091539    3.29994449226428
H         -10.13427466575340   -8.59363461452414    1.05631782168999
H         -11.78676399744294   -8.17673304123583    1.52630782766418
H         -10.74782559644988   -9.07017049046809    2.64287774103810
H          -6.50441942732539   -7.66276302866592    6.11107104000107
H          -5.16703447834433   -7.61777839436174    4.95665257567021
H          -7.06692973744319   -9.97592445510217    5.39990722138056
H          -5.39093090524359   -9.88090710418530    5.94913739867402
H          -5.75685057500731   -9.95040627710992    4.22264446358024
H          -4.79273117046672   -6.27753833276150    3.02393855864190
H          -5.57480946667093   -5.92712195418859    1.46427541643793
H          -5.48265133365294   -8.32091528934157    0.85770335152521
H          -4.77196766809306   -8.72063542487268    2.41228022947868
H          -3.03039165415775   -8.67864632254672    0.67446905485188
H          -3.17621352265820   -5.73146499124297    1.45966117656009
H           2.31982710942790   -5.22380071023778   -2.68485869985101
H           3.31501515197604   -4.42926834097604   -4.50341058201057
H           4.52104392464243   -3.00746486113008   -6.11194632653501
H           6.07225028865151   -3.67135667282225   -5.56428070825520
H           5.49157484693891   -2.83259952043120   -3.36417295872922
H           5.33888516273030   -1.59874599204966   -4.44008579700937
H           5.08413345881809   -6.16428710849644   -6.29297780687396
H           3.79770209323302   -5.11164311207469   -6.90945898173895
H           2.23219374096499   -6.38260801832132   -5.69353294832013
H           3.39945030801554   -7.34182550009948   -5.05540784450494
H           7.22941624533589   -5.43923155692255   -5.56819415742641
H           8.97339246572709   -7.14893583775079   -5.03192155145489
H           9.83785814967246   -7.38336203187089   -2.68298462759969
H           7.97676741762962   -7.53150175727755   -1.07213707709647
H           5.67446039917697   -7.60641277400205    0.14954842890087
H           3.30948777543457   -7.47168871589116    0.81763798003433
H           9.54267642928842   -4.44361703908173   -3.71598529292423
H          10.62830390334799   -5.91566709008926   -6.17471947971083
H          12.77983785521879   -0.78308830870352   -8.55057709752472
H          14.27704771945734   -0.23928770334459   -9.34139408983019
H          12.34642977572042    1.17373537324199  -10.05055369055118
H          13.54612872284108    2.11773817977163   -9.14903808646049
H          12.05181181889124    1.61563106176674   -8.35881744362324
H          15.92159609056813   -0.15695685057371   -3.46029401681764
H          14.80816530174600   -1.49588068324311   -3.74998592822645
H          13.97501095576692    1.35579129646058   -3.01915161591109
H          13.96251624056405   -0.03152095903887   -1.92377303150271
H          12.86623557345882    0.01853208063507   -3.30985459341756
H          16.41047368900721    2.06941620130773   -4.30114759543925
H          16.37800575932805    2.96774811973389   -5.83219457124616
H          18.65235760536006    2.16764850707732   -5.38355088579456
H          17.97928174644710    1.37836960239343   -6.82460760157386
H          17.56203624644935   -0.70123143150895   -5.52808790955807
H          19.64812151706054    0.67154937496663   -3.76123945330404
H          19.18751254344182   -1.09920277539613   -3.75348652695816
