126
 SCF done       -188.285037524359          0.000441695616
C          -1.36204480845246  -10.64555290347477    4.49829709951236
N          -1.00462464637637  -11.89943644592822    4.15747486859424
C          -0.09608801149737  -12.77619338903951    4.84369268468095
C          -0.78235688816728  -13.49337484917754    6.00445011257418
N          -1.65593892050450  -12.31424403204621    3.07676820530459
C          -2.44081589392826  -11.31635925679703    2.70051342587749
C          -2.29275211813579  -10.21760257055199    3.57499230763791
C          -3.00315258410466   -8.90533740782429    3.53945998609996
C          -4.40554364546260   -9.01689493969555    4.13930724675363
C          -3.31227995990924  -11.43441697828912    1.49350503986303
C          -2.59910771874807  -12.18687083967432    0.37042974636722
C          -1.39770119633932  -11.51758574017250   -0.19048527425711
C          -0.90815014254670  -10.32352993696328    0.17422295899988
C           0.24560293645823   -9.70346881898904   -0.39283521768818
C           0.63350327201737   -8.33092211679750   -0.03500133024643
N           1.67871501283825   -7.87688261524413   -0.65687150031268
C           2.07902013386892   -8.90092956465346   -1.46878716992914
C           1.20178653856327  -10.07689210411124   -1.31237735280094
C           1.67896811310640  -11.13979482929401   -2.16235706297375
S           1.10642059441851  -12.68259863720668   -2.23450360160924
C           2.80071408351593  -10.57407261654633   -2.87999994955234
C           3.02499501260529   -9.19478013126920   -2.40685882260206
N           4.07229709592651   -8.61638620727271   -3.06366400515705
C           4.46983068754053   -9.50796244717968   -3.91982283284345
C           3.72408540495170  -10.77294727340936   -3.88555157766091
C           3.99323501402810  -11.88425079371234   -4.75911324696021
C           4.65159353153761  -11.65592727532466   -5.98507507404234
C           4.88385355943096  -12.70796604102863   -6.84069756150577
C           5.49611424839038  -12.78138964235975   -8.16173968590700
C           6.06835506723803  -11.65150342267205   -8.94874619197616
C           5.02247968566478  -10.54756969603128   -9.25484469415789
N           3.88158952723391  -10.98031645977652  -10.02572557801893
C           7.29879657665228  -11.05924066178790   -8.24017305613521
N           8.35436133875074  -12.05827662796367   -8.21606043413454
C           5.44504783177491  -14.09456769005166   -8.56096629114767
C           5.80828334225399  -14.71803776898616   -9.83262036690206
C           5.58273644097494  -16.19176352579979   -9.94412523165839
C           5.05971920071550  -16.91622905376972   -8.82186086262726
C           4.64194597168429  -16.27466572411301   -7.68312361558393
C           4.80968365244967  -14.89773770821711   -7.54806028824836
C           4.47242109850101  -14.02241996253278   -6.46958203528117
C           3.84054922687637  -14.25082238004978   -5.25655036617430
C           3.60425150382269  -13.18454394991618   -4.41187289559424
C           4.58340727265899  -15.17890606195269  -10.62566131941194
C           4.49379446686177  -15.07995442084146  -12.03365361066172
C           3.38236153655394  -14.57126445927061  -12.67242416962245
C           3.25371998016364  -14.44092990947042  -14.12547560903111
N           2.21567766247074  -13.77088494063930  -14.51860022212048
C           1.56357390153626  -13.39347156996741  -13.37641177486597
C           2.22521202717735  -13.91496976279354  -12.18811392085772
C           1.57429841291341  -13.42097203562572  -11.01808932844732
S           1.92449344115952  -13.65539929638800   -9.41206674210204
C           0.52553620375416  -12.55982266888355  -11.51963932930606
C           0.53104375777155  -12.56773698878247  -12.97992045136359
N          -0.37216438303449  -11.67295217817377  -13.46961356659490
C          -0.87698827378563  -11.07881594738932  -12.42327644732007
C          -0.34331691610124  -11.56480559418873  -11.14762082885367
C          -0.71244773090107  -11.09702479136261   -9.84431306883535
N          -0.68605463412505   -9.78280675345134   -9.48725557505085
C          -0.07526598974600   -8.69237163198648  -10.20070368485573
C           1.40235794450813   -8.55520538481483   -9.83888675527904
N          -1.09316849360350   -9.61180342197344   -8.23853484604409
C          -1.44577841858380  -10.80403268879997   -7.77707912501765
C          -1.21036070255192  -11.79748011898940   -8.74511575314756
C          -1.52947016180142  -13.25109109550997   -8.67027469482384
C          -2.64267451665364  -13.63447580737348   -9.64634375739491
C          -1.98868744894259  -10.97969175306808   -6.40193903644042
C          -0.92493885042248  -11.53731920343901   -5.43746192125012
C          -1.55729380142010  -11.89158477172254   -4.13141085010418
C          -1.72596440740097  -13.12975423168672   -3.70444480578078
H          -0.93273812407626  -10.14491438943552    5.34326801060853
H           0.75253025438239  -12.19001381961478    5.20820324755302
H           0.25861547907138  -13.50445346097719    4.11112632840577
H          -1.14638035581560  -12.77472942202822    6.73528416454827
H          -0.08239065728709  -14.16535550842887    6.49318630831741
H          -1.62571703749773  -14.07167340425451    5.63575599559927
H          -3.08430111944264   -8.55227820071049    2.50732716551102
H          -2.42470549136611   -8.16937878906355    4.10265093492121
H          -4.99827583908028   -9.74095573109992    3.58488215946227
H          -4.91161197897547   -8.05458636291267    4.10666885014348
H          -4.34741265909574   -9.34340823392107    5.17530629745616
H          -3.61936539587866  -10.44195325001131    1.15758128264649
H          -4.21842175706999  -11.98746287494104    1.75961918897071
H          -3.29842217226836  -12.38073793142614   -0.45032164927185
H          -2.28156527135251  -13.16010199904410    0.75696570085884
H          -0.89253696935207  -12.07283137128372   -0.96932987138575
H          -1.39523554250722   -9.74237581944125    0.94461395418938
H           0.11403841213945   -7.72036159308635    0.68452678636986
H           5.31276606859553   -9.29787059712379   -4.55516858702560
H           4.93015234611972  -10.64909984576371   -6.25293168154373
H           6.41857555420762  -12.04715586451687   -9.90887843207762
H           5.52198470479245   -9.75317303408933   -9.81773744318408
H           4.64200353864945  -10.11898516608857   -8.32672809269555
H           4.17553983284090  -11.39201867088091  -10.90583909678069
H           3.35439405695060  -11.68468380198919   -9.51562487814178
H           7.01293813642328  -10.70200693534334   -7.23888607351715
H           7.66559377126640  -10.20329205250109   -8.81388581969471
H           8.06417196714939  -12.85485396165333   -7.65710800129750
H           9.19714234697553  -11.67597272431944   -7.80207620743333
H           6.61481759298860  -14.27747365719833  -10.40419157454786
H           6.17372336507231  -16.74941490877564  -10.65890575740691
H           4.98553983795097  -17.99058201465863   -8.90097264729417
H           4.21459252636960  -16.84025600223636   -6.86858224644115
H           3.52982495518819  -15.24555711998353   -4.97446004334551
H           3.11533083986375  -13.34936507932239   -3.46638497239619
H           3.65037964304990  -15.04473399220294  -10.09080312211165
H           5.34894555993540  -15.35332466730744  -12.63920742285690
H           3.93992328170367  -14.86378462351679  -14.83953472481440
H          -1.65525580494545  -10.34302614945897  -12.53094037244795
H          -0.61430393053867   -7.78397590043424   -9.92039838872727
H          -0.18691408210614   -8.86611014213170  -11.27338287855556
H           1.50235236282459   -8.38725274266316   -8.76952602645512
H           1.83363539297409   -7.71051406254261  -10.36873452039613
H           1.95888167586155   -9.45322295273744  -10.10264487857985
H          -1.83985216669180  -13.49727088756483   -7.65363448059799
H          -0.63372866046663  -13.83467772980553   -8.89857738620439
H          -3.54719116337572  -13.06864573988789   -9.43099939461568
H          -2.86944102736984  -14.69494464473983   -9.56238798525694
H          -2.34354010312782  -13.42636425399265  -10.67160771660121
H          -2.83483714323520  -11.67115771246002   -6.43157239483615
H          -2.34118714099386  -10.01365387259902   -6.03853983407763
H          -0.15053885284154  -10.78028846781702   -5.28963751032120
H          -0.45691833612138  -12.42000560629499   -5.87730796752861
H          -1.91828795939917  -11.05535745320712   -3.54484696870037
H          -1.36965709710707  -13.97375534961004   -4.27204959499802
H          -2.20877071313203  -13.35793692633866   -2.76945904556428
