112
 SCF done       -180.717823858910          0.000734898380
C           3.48308011490834    2.75328041571244   -7.60401291605562
C           4.31040941257599    1.65548396941838   -7.70623613739577
F           5.11508247153784    1.55182145378832   -8.78566297538201
C           4.34778876666557    0.65935332012315   -6.74603756791329
C           3.51893341434204    0.78449566444961   -5.64370829693816
C           2.68110236053933    1.87525279280412   -5.51845920610528
C           2.64258190962596    2.87642864059498   -6.49489777520444
C           1.74809587438715    4.00173793821933   -6.30867843648705
C           1.50667918998885    4.98450032798650   -7.19121888044041
C           0.56054961445921    6.04969416240336   -6.96892570759466
C          -0.33928818704015    6.46496925687321   -7.90334168089794
C          -1.24922071014924    7.41065094073696   -7.29151967821709
C          -2.34626759570410    8.02724097889567   -7.89750304013774
N          -3.23946363379252    8.58427981946032   -8.36026396714105
C          -0.85625327917443    7.62394658326529   -5.99845252443070
C           0.34932438928341    6.87257685229319   -5.75997970818123
C           1.22071591649555    7.10687667995231   -4.72266039561248
C           1.05717985306521    8.18152063051104   -3.70874255578080
C           1.92591775778171    7.91879110773815   -2.69062043409943
C           2.72461877169165    6.77249495929943   -3.05719056850631
C           2.34099929549650    6.32307306030173   -4.29576279623366
C           3.74425866738885    6.23264181357738   -2.26319727763761
N           4.57174886582775    5.79041827199363   -1.60097302397815
C           0.24755721046134    9.34274435845062   -3.89229663373632
C          -0.28278392828045   10.10186998402385   -2.90816407552020
C          -1.13927846263270   11.23856415524195   -3.11654173705846
C          -1.67956616066177   11.54933271303788   -4.35239610548102
C          -2.55139363052518   12.63729329187944   -4.49001833557480
C          -3.22263934889910   13.12792397307274   -5.61086923257346
C          -3.12915122011267   12.59505287082595   -6.99635161453339
C          -4.48642039616178   12.05732489810544   -7.49884292168417
N          -4.80999645398275   10.83509635016810   -6.78984622655922
C          -2.54284725698128   13.64775321800098   -7.95583726822160
N          -1.17757782866810   13.93647759535292   -7.55797738330594
C          -3.99424729750314   14.26485848275298   -5.16385071812491
C          -4.84480982528854   15.09138346404385   -5.80574680092076
C          -5.50122708189300   16.23503671761503   -5.11527812222619
C          -5.23054430102121   16.32220691065356   -3.64996460031408
C          -4.39110375742660   15.48219057869676   -3.01369342066675
C          -3.74919314091130   14.44233603584848   -3.72365071838515
C          -2.87543598422989   13.44543411924612   -3.32754530703664
C          -2.31120673577622   13.11579347427186   -2.07564117414683
C          -1.48150595680236   12.04417455771573   -1.98191433364138
C          -5.00922402378764   17.51204795099059   -5.76329760148104
C          -5.79651006585566   18.35752652973603   -6.42809321493522
C          -5.35198885001977   19.60178203440558   -7.00659693219508
C          -4.34798937805989   20.40087661515568   -6.55838155126415
C          -4.34898841293980   21.62721496618976   -7.33563825665278
C          -3.42007747679071   22.66064487520865   -7.16676770364099
N          -2.64771236181652   23.49593735090842   -7.00969670556180
C          -5.38497300684819   21.59119534347664   -8.22892764955767
C          -6.03472342418071   20.31487288161222   -8.10351947544851
C          -6.99344477076186   19.79403845298440   -8.93808074932403
C          -7.86655478098185   20.52703364942503   -9.87886099607053
C          -8.52932906433687   19.59995859385959  -10.62661832812531
C          -8.11464257780968   18.27903744309458  -10.20573964241987
C          -7.22895224936252   18.39711848134286   -9.16668319979417
C          -8.56269405944945   17.08344379070125  -10.77894669657893
N          -8.93508402540325   16.10127717101137  -11.24386831009571
C          -8.06094697116301   21.94849111967637   -9.87286081136452
C          -8.63684734464864   22.63349512874526  -10.87581772852898
C          -8.84069397523456   24.07295091351473  -10.89315795396524
C          -7.91912592237273   24.95995126222780  -10.33340893752519
F          -6.80335268355776   24.47458862025898   -9.74023160830250
C          -8.06080147619929   26.33123546830702  -10.39168851337792
C          -9.16866027574189   26.86129615423024  -11.03015048763169
C         -10.10348552009725   26.01718178328415  -11.59902211154522
C          -9.95797818815891   24.63443818864643  -11.54441012610867
C         -10.99012247058018   23.76238814599492  -12.10562490731104
C         -11.70111115080324   24.03883185626300  -13.19046963684863
H           3.50736824549020    3.49920411780853   -8.38167784489012
H           5.01169942168430   -0.18129544334070   -6.86673501152008
H           3.53146349644898    0.02435633454243   -4.87765509810571
H           2.04184723975689    1.96070951744706   -4.65193631162866
H           1.21265350106652    4.00851079527295   -5.36687177526161
H           1.93840585798676    4.94810674637231   -8.18268317223036
H          -0.42693897034115    6.10798749052558   -8.91281399256039
H          -1.38880769043927    8.20458056510173   -5.27139717162638
H           2.08213244244248    8.50051853990331   -1.80191023827122
H           2.77984979963857    5.50078066116983   -4.82332632747016
H           0.09454056718384    9.63655631151404   -4.92078538548431
H          -0.09309428163170    9.82973101959871   -1.87787646039132
H          -1.46154586034822   10.94853335282950   -5.22062089647516
H          -2.43134541190179   11.75329285457757   -6.99576303745160
H          -4.41481509235169   11.91933263695884   -8.58983722045924
H          -5.27584118180818   12.78492563355869   -7.29920652274559
H          -4.23000371079171   10.07236912531478   -7.13055400976375
H          -5.77504903783521   10.57361626662477   -6.95478941858371
H          -3.19124627993123   14.53857774870007   -7.97578906689191
H          -2.51061594751048   13.22978053375944   -8.96571416461642
H          -1.15973689126570   14.35979346797668   -6.63576997637618
H          -0.73733010021570   14.57402286986501   -8.21105150285051
H          -5.06817910038189   14.98973486970957   -6.85844400758562
H          -6.58515710070787   16.17328437378204   -5.28433594804650
H          -5.72500567929320   17.12639510228443   -3.12679318667431
H          -4.20769962654883   15.58331763227061   -1.95382585061642
H          -2.54856709515749   13.71232117802203   -1.20711442383392
H          -1.04932338649394   11.77704940303691   -1.02822759647051
H          -3.95151375313462   17.70166857343348   -5.65333217068899
H          -6.85016265119956   18.13285125792542   -6.53732258692144
H          -3.67847409604289   20.21012497023980   -5.74070206401899
H          -5.59261941575849   22.33475377431930   -8.97259728562007
H          -9.27006537321794   19.77645053956319  -11.38348213244161
H          -6.70126162123995   17.58906588065394   -8.69833915501801
H          -7.74795281358817   22.46689188208277   -8.97905436530752
H          -8.97169115807773   22.10445441444427  -11.75747356751684
H          -7.30627495390127   26.95937783746996   -9.94567517465254
H          -9.30049360170106   27.93096506423485  -11.07933577366071
H         -10.97785793784234   26.43241491034447  -12.07568643665509
H         -11.16371974452192   22.83684706121010  -11.57293980489252
H         -11.54134332323231   24.93444581953958  -13.76668852839191
H         -12.45855485948346   23.36646214832885  -13.55419321956166
