126
 SCF done       -200.916874034358          0.000449821280
C          -3.74455489492264   -4.16285542532595   -5.01010922467965
C          -3.46962243893669   -2.79564947598006   -4.89204790523801
O          -2.15867051074734   -2.44225761960666   -4.90524799858236
C          -1.83079519754766   -1.08195103976679   -4.72618969574441
C          -4.52536453005068   -1.90897485724841   -4.76277913081719
C          -5.85351092863258   -2.35204231950810   -4.74521335706847
C          -6.11198568149545   -3.72952849595871   -4.87524810648423
C          -5.04631829454646   -4.61409492809327   -5.00668452009329
O          -7.38895018195565   -4.22874491245175   -4.84269595047615
C          -8.21107786763131   -3.94780427108695   -5.96775867938380
C          -7.79392760267238   -4.74956707480954   -7.19575131352630
C          -6.94237584509596   -1.42623800609374   -4.54962533334361
C          -6.89332038097561   -0.10259048530105   -4.82306704945624
C          -7.98738960705478    0.77006693185908   -4.57535389990466
N          -9.21308847758115    0.31170942411893   -4.35257318958572
C         -10.00994747849294    1.39316176632221   -4.28484706285715
C          -9.24179357938531    2.63141173603203   -4.48855768114659
C         -10.11871435143533    3.80993522232980   -4.41824592353827
O          -9.82311549160189    4.97874293979930   -4.54653940571067
C         -11.43867624886533    3.20534767097880   -4.15666647811509
C         -11.32715932634114    1.73415915739379   -4.08547814149406
N         -12.53405601163050    1.17495488494997   -3.82713409238711
C         -13.36515266410521    2.18578550967298   -3.72907265033494
C         -12.74792690351693    3.47986974108679   -3.91637282240535
C          -7.93361060027095    2.25439219192467   -4.63139518708173
C          -6.80323131718437    3.11662943657092   -4.77025749531461
C          -5.53802272873078    2.80780365906188   -4.41911463431223
C          -4.37861025252184    3.65579884466332   -4.53972776259680
C          -3.13301907609745    3.09993343815249   -4.33320619890765
C          -1.97186459456184    3.88448134954240   -4.45268077154163
C          -0.62840193406665    3.56029409843731   -4.30938451556796
C          -0.06059402417096    2.20966317727762   -4.02889158797903
C           0.72149584389401    1.69997438304545   -5.25595806798222
N           1.16784463243530    0.32800764612775   -5.05854841059224
C           0.78485084020953    2.18192375148481   -2.73859811710092
N           0.46321386819941    0.98298893554939   -1.98797899869445
C           0.11525272751449    4.77800289190649   -4.50923101083116
C           1.43191323866307    5.04562560860536   -4.43232784732453
C           1.97192276459733    6.41078689454705   -4.70511858048727
C           0.93784943102239    7.45152098608468   -4.97031399379174
C          -0.38009123377311    7.17545847409998   -5.01810124555749
C          -0.84402095632010    5.85820337650719   -4.79838527331362
C          -2.10681294014301    5.30051031996961   -4.76371978588687
C          -3.39543313587766    5.84793082500450   -4.96353337528326
C          -4.48733299258892    5.04871110567069   -4.86399826170886
C           2.90096486855500    6.25949729281229   -5.88391036527808
C           4.13323171557664    5.74270739233230   -5.79109083045389
C           4.97984848358476    5.57011887430652   -6.93048568938928
N           4.73060146596146    6.15974408860859   -8.08912424157939
C           5.73563836972573    5.79435166012348   -8.91016771370358
C           6.68320406282564    4.89480365079345   -8.23075258240755
C           7.76301109359452    4.50199085303234   -9.14654638647898
O           8.70656885708514    3.76680583737336   -8.93570480594707
C           7.41351979856654    5.21799748690392  -10.38640354472327
C           6.16993181658047    5.99104350597755  -10.19900099902594
N           5.83782625780694    6.64679769335357  -11.33794355355575
C           6.77765603304181    6.33466644102026  -12.19812904618660
C           7.79096861864477    5.44566455730982  -11.67154833090421
C           6.20369903542984    4.73598014010408   -6.95469525359672
C           6.65791749862036    3.92859929019084   -5.87086572220482
C           7.76239672025092    3.15718424886719   -5.93499859263804
C           8.24334088174189    2.29489058410932   -4.87915371161763
C           7.43446023725459    1.74312706150051   -3.86793040783949
O           6.06404097815033    1.96593087231779   -3.81779332006089
C           5.32198709000501    1.15196746179753   -4.69925770537733
C           7.99525382277474    0.95566548202511   -2.87953812631131
C           9.36024594609811    0.68100731771983   -2.83514047597604
C          10.16644645309763    1.19771674297383   -3.86564210638641
C           9.60417510280947    1.97467966949796   -4.86093143773193
O          11.52499079237185    0.97303321264221   -3.88609691250177
C          11.92195931145789   -0.32997314510414   -4.28557561418924
C          11.69663943146107   -0.57734697279192   -5.77318883791722
C           9.96150877872495   -0.08518484795294   -1.75052092702390
C           9.33966026786538   -0.99038904053113   -1.00504165348739
H          -2.91694165840316   -4.84777278248113   -5.10186178647001
H          -0.74457286194575   -1.01411090005228   -4.78638198033047
H          -2.16131466145761   -0.72423507601309   -3.74543887132311
H          -2.26872646087437   -0.45918975233493   -5.51336475857180
H          -4.33902118517858   -0.85695805388650   -4.62582216462262
H          -5.26034617059420   -5.66787616974018   -5.09512210993977
H          -8.19722598932364   -2.87465823892548   -6.19817051202828
H          -9.21796881763317   -4.22817169519470   -5.65074170076798
H          -6.78868995262566   -4.47056608491460   -7.50665522177172
H          -8.48265020271423   -4.55291695164545   -8.01251038768594
H          -7.80639891330137   -5.81321138782414   -6.97132528598414
H          -7.85726303274236   -1.82429567518918   -4.13080332398429
H          -6.01621069595043    0.33505343811921   -5.27622664880383
H         -14.40815067188129    2.01225980327559   -3.52721415120291
H         -13.25216390154180    4.42497354361320   -3.87026501896320
H          -7.04688250393696    4.10431263146293   -5.13801286037423
H          -5.33988608757154    1.83647210364770   -3.98435609801696
H          -3.04297290785210    2.05292536250280   -4.07916703488893
H          -0.88736121660956    1.51615239067964   -3.86010858955329
H           1.54773352896195    2.39533486973437   -5.47640148918211
H           0.04695167737801    1.70836916287220   -6.11599423536502
H           1.49850120824165   -0.06312352577844   -5.93368662332121
H           1.94232953943412    0.29728688078302   -4.40358254742466
H           0.52088066278473    3.03882421999740   -2.11153334628345
H           1.85750827907708    2.27246018675999   -2.98683161091107
H           0.66016783779941    0.15520143935021   -2.53957467744868
H           1.00148937327982    0.93614858420340   -1.13040745854571
H           2.16180509434330    4.28608985457124   -4.19361727674535
H           2.57818302043881    6.71488769336791   -3.83897956738069
H           1.30856130785379    8.44881016333288   -5.14978851509271
H          -1.09904318000667    7.95666631669999   -5.21646045012597
H          -3.49744027088524    6.89845806516055   -5.19180431134839
H          -5.47024149257890    5.46856143988253   -5.00563543970123
H           2.51859180400007    6.54400239324075   -6.85265267284331
H           4.52441267924264    5.42185516140327   -4.83445517140917
H           6.75182366349031    6.73236177917109  -13.19791412069088
H           8.63817592875361    5.07379963940013  -12.21329309284816
H           6.06884823657511    3.94233413419689   -4.96574577523341
H           8.37692595580929    3.19367478984824   -6.82581596442044
H           5.63545281484743    1.29094188436476   -5.73936950988715
H           4.28188802903450    1.45837048591396   -4.59330406322835
H           5.42031323192878    0.09243963467921   -4.43598991302154
H           7.34819502994585    0.57707942188675   -2.10274391768070
H          10.24695560609108    2.37076809638201   -5.63277935553963
H          11.39056327994959   -1.08947863955786   -3.69544441282665
H          12.98768120670285   -0.37805500487569   -4.04879184953690
H          10.63491742491187   -0.53747346470647   -6.00854090444310
H          12.08047926091245   -1.55714381805809   -6.04348636918637
H          12.21148590245278    0.17881346168906   -6.36027341305313
H          11.00909057099905    0.12813253761548   -1.57820415094721
H           8.30822007651929   -1.25762871797254   -1.16299108253663
H           9.84918374875405   -1.51202051074127   -0.21349857789169
