110
 SCF done       -213.852086307575          0.000409427353
C          -5.87914656410595   -0.20172500926257  -11.45647469023698
C          -5.59709537455809   -1.19532637022248  -10.58094172423174
C          -4.61510525451835   -2.27897105187136  -10.83786276185803
C          -3.89521937748974   -2.33836181526317  -12.04973399678087
C          -4.05309932869987   -1.42635635368842  -13.03356076204083
S          -5.12686700389412   -0.07274111030823  -12.98726968893208
N          -4.51522317123134   -3.11983017282867   -9.83465136374625
C          -5.38503822179892   -2.67631820532803   -8.87686450062342
C          -6.06669729589191   -1.50914301002365   -9.28362310482343
S          -7.15084272027516   -0.92941956508988   -8.09413375077513
C          -6.69572490464892   -2.25461919371901   -7.02911852733702
C          -5.75115524159303   -3.09047231179730   -7.59221901880411
C          -7.26272225892587   -2.37870620658450   -5.73286887445714
C          -8.13699017736040   -1.49672157892740   -5.20526178789624
C          -8.65679297159071   -1.54644844820237   -3.86652485241957
C          -8.79059469885267   -0.36173268277261   -3.10653499786843
C          -8.47288967027644    0.97547268944029   -3.62948810529028
O          -8.09251917452315    1.29160578929349   -4.71848340696918
S          -8.73394167248783    2.19357538464927   -2.32926762650393
C          -9.17861812346094    0.95521634768203   -1.11649529963893
O          -9.40671738399663    1.23285229281021    0.02461995148668
C          -9.18279741052544   -0.37193165465000   -1.76608529880225
C          -9.48653117118320   -1.56213251568920   -1.09441212229531
C          -9.44843214173138   -2.72724522537581   -1.86928910266604
C          -9.05910287471675   -2.73056911346991   -3.21029212687104
C          -9.24020375816167   -4.03310898924917   -3.87503412602807
O          -9.11200186323273   -4.32457211881341   -5.02647587405853
S          -9.80763590527637   -5.24047043688091   -2.65930842653159
C          -9.89616027044768   -4.02965376063048   -1.34407637188079
O         -10.29364649259664   -4.28630342556116   -0.24554866954602
C          -9.79049338348477   -1.58840236690078    0.34307255185583
C         -10.88655304930109   -0.93323686166442    0.84096978457767
C         -11.08249102754891   -0.86707818031591    2.23504160388078
C         -12.01254160419141   -0.17879162682366    3.01057860268116
C         -13.17686201867950    0.64897500956121    2.61120625987522
C         -12.94692401756421    1.50457144021802    1.33764023282643
N         -13.70731449275378    2.73077255719016    1.30527738467775
C         -14.43072604809556   -0.24426023440897    2.44123797201001
N         -14.82322442689505   -0.78953076752788    3.72725248017071
C         -11.67759364346567   -0.44179179719252    4.39325608256118
C         -12.24888181411945   -0.00910964133497    5.53334143307865
C         -11.74352183872779   -0.43814037931960    6.85932086586418
C         -10.58080000589052   -1.37810657140060    6.81445554242818
C         -10.00683736145061   -1.77842141125295    5.66139758376169
C         -10.51842816064589   -1.33234882279375    4.42400980814342
C         -10.14702226538059   -1.56250110980034    3.10349308404605
C          -9.06719838736123   -2.27629587445209    2.55232009369571
C          -8.88678234015420   -2.27284710383257    1.20200617157453
C         -12.82553042382457   -0.99135165458383    7.75125748816499
C         -14.08582635993061   -1.19058295666989    7.38371999240106
C         -15.09990378897620   -1.72329153286668    8.28243059301211
C         -15.31948364075658   -1.22640158402322    9.57722859738529
C         -14.68604055034928   -0.01951637276976   10.13456315910926
O         -13.92704917673373    0.74575507804053    9.61203947354261
S         -15.27057383273910    0.22563658502744   11.81658814520791
C         -16.32725469159563   -1.22146425639525   11.77799241473590
O         -16.92966458025449   -1.61842272615440   12.73212530028594
C         -16.26932230710700   -1.80413943392961   10.42942238906869
C         -17.09742766136355   -2.85442809355682   10.02057265233859
C         -16.92224501740135   -3.30856078666519    8.71180060094771
C         -15.93676294860329   -2.77141873446054    7.87365608451121
C         -15.87162327706765   -3.39622582630462    6.54895220003846
O         -15.10138672096092   -3.17760833254907    5.65509886030472
S         -17.18085857763206   -4.61965884224129    6.41602870942536
C         -17.76784214877822   -4.33294899533276    8.08951778649729
O         -18.71112480629673   -4.90246067670051    8.55743869368569
C         -18.16607785203453   -3.35898808600243   10.88896930332978
C         -19.21867809868686   -2.55736807644705   11.20922216236678
C         -20.35676722961913   -2.95177383158542   12.07125104610172
C         -20.42487431693188   -4.24072765676425   12.63352941278473
C         -19.46411949039918   -5.17015917667518   12.43066148357713
S         -18.04158430115056   -4.97182987739057   11.47945629201870
N         -21.21997253541471   -1.97480826573707   12.23691784616214
C         -20.73611873726190   -0.91045450050285   11.52850139074928
C         -19.52690101381125   -1.22148865843114   10.88114590089961
S         -18.89333453512073    0.11415870507774   10.00961363535923
C         -20.26006870519543    1.10474871837366   10.51589900268852
C         -21.14310893975325    0.41591625335789   11.30999732954295
C         -20.30006372446295    2.46888532048373   10.06377974856865
C         -21.25612510060209    3.34740842810860   10.35696965563940
H          -6.59612055353256    0.57716857960518  -11.24803895026938
H          -3.19433033755744   -3.14964014023843  -12.17836504300988
H          -3.50084146903042   -1.47394356452897  -13.95740460358248
H          -5.35513873132954   -3.95437096529999   -7.09159962506235
H          -6.90508957005292   -3.21900107923190   -5.15348983555835
H          -8.39398942966972   -0.61852344314343   -5.78166972538673
H         -11.58052597451977   -0.45891750303047    0.16683558107924
H         -13.39716479410743    1.33509459703838    3.43777404635104
H         -13.22833893304088    0.92888179812622    0.45222672598955
H         -11.88919412805792    1.76709141853527    1.26134422146367
H         -13.43448593418105    3.35220306543815    2.05767124883922
H         -14.70241858774993    2.55304038075505    1.37910798224609
H         -14.21442083854937   -1.00990563885940    1.68002154773660
H         -15.25319394455821    0.37840031914207    2.07582963133160
H         -14.20889501280788   -1.55105696977191    3.99796733738920
H         -15.76220236797180   -1.16879008904484    3.68475649643617
H         -13.09151626588363    0.66620440719249    5.53131508346714
H         -11.40402978197180    0.47632362739831    7.38004363127912
H         -10.21359351632375   -1.72561003666729    7.76803922315550
H          -9.16226040793480   -2.45152103243347    5.67199945026918
H          -8.38027158269516   -2.79934485172850    3.20008197978314
H          -8.04433943416631   -2.78370120767939    0.75978028277668
H         -12.49514178275941   -1.24596392939046    8.74886510006047
H         -14.40818022448037   -1.01468632395445    6.36677462645939
H         -21.27540775778997   -4.47676059619309   13.25529710123014
H         -19.51260192956954   -6.15207875893547   12.87220147858785
H         -22.03711771418325    0.84610742390281   11.71969499222480
H         -19.46670866023012    2.76725232450428    9.44038845450862
H         -22.09947864153106    3.09185568129809   10.97408167035262
H         -21.21925824014863    4.35599391673650    9.98501601069940
