114
 SCF done       -196.317676376638          0.000944757935
C          -1.74478279128996  -13.54684477835331   -3.44813121864407
C          -2.39563431912337  -12.52128662615515   -2.84536184774263
C          -2.01259251698148  -11.96110969610189   -1.52918997607957
C          -0.91596925403520  -12.46756530902686   -0.80264385526888
C          -0.15821377501794  -13.48943742650830   -1.26017136926044
S          -0.38880892919986  -14.32180443471948   -2.75424328398078
N          -2.79716216152484  -10.97236562207612   -1.15678221430575
C          -3.71669285381870  -10.81307343082833   -2.15694861177816
C          -3.51148921978908  -11.73087715633826   -3.20941034318857
S          -4.63650915014042  -11.51995294607855   -4.48301124467867
C          -5.39085457620413  -10.18878293331740   -3.61230965535231
C          -4.78657330423140   -9.94837353446672   -2.38962390748168
C          -6.43234180080727   -9.45705190324667   -4.23991395148043
C          -7.02421786506584   -8.37636987258790   -3.67233385770034
C          -7.93714975608325   -7.52346098918565   -4.34498565300331
N          -8.65476600535317   -7.90226119620685   -5.39400234997014
C          -9.47465973071821   -6.87072755347478   -5.67036381434999
C          -9.26406745661850   -5.75393438757485   -4.73441588034793
C         -10.16947232539213   -4.63592953881191   -5.04272674180181
O         -10.26963570700841   -3.56819316125021   -4.47828158408189
C         -10.92009008624067   -5.14876240721476   -6.20523846287704
C         -10.46633591123987   -6.51004108324277   -6.55306985719243
N         -11.13941740819829   -6.97838247456666   -7.63174136042036
C         -11.95963137192844   -6.01080745925828   -7.96896787325901
C         -11.86882350400610   -4.83810794065170   -7.12760317983032
C          -8.24599862557050   -6.13720201128773   -3.90585043967779
C          -7.59476607888076   -5.40749576757044   -2.86242868088042
C          -6.31744776699368   -5.62594656463755   -2.49132468418368
C          -5.63232783170613   -5.05339329345727   -1.35843860620930
C          -4.56849770278954   -5.75798709378141   -0.83315276866760
C          -3.93889792740765   -5.32609432069710    0.34800151502628
C          -2.92918679309396   -5.89388284365706    1.11782944967233
C          -2.25056009078935   -7.20902214802675    0.95934182128375
C          -3.18595217772483   -8.31930209346831    1.50254203652489
N          -2.51221110052194   -9.60320960611535    1.51055685276514
C          -1.78680510956586   -7.51623394078321   -0.47542437547510
N          -0.51608830489489   -8.21785559848982   -0.41000914457598
C          -2.73747034591469   -5.01951417454002    2.25199850819013
C          -1.94990504890309   -5.14391251828127    3.33614895620880
C          -1.99002151617583   -4.14025434849809    4.44068554980843
C          -2.87537089247795   -2.96532731731934    4.18401976193443
C          -3.66042116001670   -2.86102839310849    3.09384696250672
C          -3.65140616405603   -3.87723203947841    2.11227980382241
C          -4.38204911973984   -4.07855243435202    0.95619242544594
C          -5.42758315381558   -3.34030685996562    0.35684303733049
C          -6.04692456692705   -3.82738212858210   -0.74952718988067
C          -0.58396585444062   -3.75554402684012    4.80556833727558
C          -0.01418730200439   -2.60263864191843    4.43113289722331
C           1.31276673989518   -2.24536536929365    4.82201924161027
N           2.01608634641611   -2.96676941283393    5.68252102543186
C           3.18971841785860   -2.32237238426282    5.83214684579666
C           3.24371936046874   -1.10692054771763    5.00669417975135
C           4.52717360425207   -0.41344925760903    5.19324522325223
O           4.91107456920454    0.61649720594293    4.67764875585209
C           5.22217315662787   -1.27658260415886    6.16379527675800
C           4.37364098918763   -2.42898015855646    6.52598178257998
N           5.00349512226871   -3.22418477733258    7.42280175373590
C           6.16320367828232   -2.64631472385635    7.63704964352872
C           6.36536037654941   -1.42906980818373    6.88370676226451
C           2.03901999937353   -1.04496700623277    4.34923874241708
C           1.53336110080316   -0.11600690092444    3.40041850600564
C           2.22471165622757    0.95529278703764    2.95262924433465
C           1.74614694091422    1.88503031066045    1.97530684260383
C           0.77721911855322    1.67924202231412    1.01537318422927
C           0.34500575368287    2.72856811425718    0.05317299482513
C           0.86255937877051    4.03796936474226    0.06307076514016
C           1.84335514452822    4.42316811205453    0.90773153233107
S           2.58287790795934    3.41010511888221    2.08497610766396
N          -0.54528864678623    2.29325950171626   -0.81231063839990
C          -0.74630996695122    0.98013717242177   -0.51896684120799
C           0.02095207489010    0.56461680281242    0.59430020439823
S          -0.22782949072152   -1.11524268543471    0.91292995541816
C          -1.32572071143242   -1.24736959094089   -0.44845448066572
C          -1.50397791978294   -0.04818317592788   -1.09503502760519
C          -1.87299707121501   -2.54137899118831   -0.74610984508377
C          -2.67492249635845   -2.81229293408876   -1.77398404850358
H          -2.04040023418092  -13.94243289793443   -4.40734372064820
H          -0.68626668412462  -12.01327917948416    0.15023855807337
H           0.68017058830283  -13.87486445401453   -0.70416060312096
H          -5.10278480964719   -9.18161413773747   -1.70733757686296
H          -6.71120377522870   -9.73404295797410   -5.24672893967021
H          -6.77601955590884   -8.09984132699336   -2.65864317859082
H         -12.62385684080038   -6.13077449417868   -8.80745335788441
H         -12.44711866656995   -3.94230803278873   -7.24027804037654
H          -8.19194723944421   -4.64309655569069   -2.38384951237597
H          -5.73098854314876   -6.34232267400501   -3.05372871754129
H          -4.24330595352013   -6.67100919279083   -1.30957021651993
H          -1.34673426033964   -7.21643610707382    1.57485837012141
H          -4.11194488819599   -8.31382739991749    0.90403849842261
H          -3.45628253898191   -8.05564790358084    2.53001028928883
H          -2.56583991566313  -10.03952234485508    0.58920825282744
H          -2.95718520347016  -10.23248263824126    2.16821804837236
H          -1.62041509448341   -6.58087251279964   -1.02025395992326
H          -2.56309491773222   -8.09102191637205   -1.00653420776842
H          -0.63106293324839   -9.05375427539148    0.15411074736275
H          -0.21977479691420   -8.50016542286883   -1.33825998559864
H          -1.27045847532963   -5.97522800470788    3.46123559386085
H          -2.39815336289503   -4.67006061370737    5.31925206044755
H          -2.87223369525971   -2.20084265666354    4.94602510402512
H          -4.30711593709677   -2.00641127546584    2.95878323158614
H          -5.73471178330415   -2.40252576485184    0.79518399082234
H          -6.85227242081242   -3.27597576144248   -1.20915630817701
H          -0.00790700329355   -4.45816067807156    5.39038847810440
H          -0.56189861655288   -1.90461717310618    3.81454048147761
H           6.86801370225375   -3.08368005848976    8.32292217701483
H           7.24123739048134   -0.81167878759832    6.91737677983983
H           0.53138779589234   -0.28710722167261    3.04166303740632
H           3.19708002794452    1.17484903571125    3.37801510517686
H           0.46117243184881    4.73566013838917   -0.65627858165002
H           2.25425668363823    5.41924530625492    0.90474651921974
H          -2.14039723956253    0.08340111692453   -1.94935695647645
H          -1.57509742363041   -3.33371297013345   -0.07053294410319
H          -2.99239478374056   -2.05467388854599   -2.46878081567061
H          -3.03899974580437   -3.80861847614672   -1.94862532042021
