73
 SCF done       -149.947524983071          0.000915727204
C          -0.20784334973894   -6.76482633759247   -0.83431806331878
S          -0.80431456995264   -5.22768378621131   -1.35124330107757
C           0.58505349720101   -4.43353450169220   -0.68672108225598
O           0.80176934905247   -3.11713423252459   -0.82105818510127
C           1.45030746324811   -5.32028593623875   -0.08452766698574
C           0.97988366902274   -6.66274709793784   -0.20301750910487
C           2.70832004821994   -4.96221228777634    0.52555712429733
S           4.03516202624700   -6.05146105241015    0.29334021254975
C           5.17090760153341   -4.97152131894109    1.02691215416636
C           4.52551804442688   -3.79795197018324    1.45115592537975
C           3.10884266819757   -3.81128386104302    1.20664103886645
C           2.32029446139193   -2.71288764600850    1.66468028647453
C           0.84007062093269   -2.69191256536221    1.73994023081233
O           0.17588451787239   -1.69717164237236    1.61400193357483
O           0.24623268142613   -3.86014205440480    2.07386607499104
C           2.96056842061611   -1.60916309518589    2.17601641299880
C           4.34606047766954   -1.56869026688808    2.34905759376157
C           5.12928937975317   -2.65427268851073    2.03505941661329
O           6.46725727696261   -2.64830353584128    2.26891900078865
C           6.53952400741419   -5.28035831605137    1.12289700318353
C           7.12937077672815   -6.42240606146583    0.67152523665565
C           8.51188905796993   -6.67228119153840    0.75137436619792
S           9.18440533615291   -8.16828085877709    0.12247464054860
C          10.84023377441632   -7.74126809694467    0.47673195362166
C          10.85623663515517   -6.48360061044756    1.10530496697389
C           9.55868742196474   -5.89985623722884    1.24045236705223
N           9.70511013500764   -4.68363071903919    1.82813782938779
C          11.04472144679359   -4.48424365468313    2.06187020891475
N          11.46381135658121   -3.29406332694273    2.66370658060076
O          10.58517097301442   -2.48558682687877    2.94551236466090
O          12.65259983065110   -3.13305382113635    2.87169255993545
C          11.78705581510846   -5.56736174406418    1.63069485305204
C          11.92609457252696   -8.60431187453027    0.27435952037481
S          13.35531357276727   -8.35470585775776    1.24278669039439
C          14.06333263490719   -9.86395940914263    0.77258704626362
C          13.22101339635419  -10.53220228008990   -0.13620629728300
C          12.04938531772442   -9.78673021552801   -0.48072402300306
C          11.19714075744261  -10.27623763014443   -1.50268276080593
C          10.21638015885957   -9.46347167936932   -2.24974627443113
O           9.20426884861109   -9.88530632188870   -2.74827140425205
O          10.62961740111738   -8.19597176029067   -2.43396489509246
C          11.40315625626895  -11.55091166505026   -1.98617560164493
C          12.47893560799537  -12.32943162280287   -1.56268407883500
C          13.41721510277324  -11.82279601839629   -0.69055974590103
O          14.51743030117207  -12.53395152104056   -0.35003039044530
C          15.31591830103889  -10.27241048640083    1.27004157297012
C          16.07280120740990   -9.54607730718370    2.13469478140816
C          17.34100501919761   -9.93716420804083    2.61938275250829
S          18.10012498207668  -11.44151809511235    2.13208484624111
C          19.48832968772058  -11.09839403106999    3.11950334953041
O          20.53491095202985  -11.93513861753462    3.19606989021210
C          19.36770850089808   -9.90614125482709    3.77802033751911
C          18.15865521109751   -9.25678374323442    3.49342679303373
H          -0.78777029803478   -7.64238785234319   -1.03487845072666
H          -0.00457291509545   -2.63641298329382   -1.04487701714695
H           1.52134261554647   -7.50147460497807    0.19640028307182
H           0.88736279134976   -4.57474570009000    2.18545492992979
H           2.35948324934138   -0.76896719831628    2.48755907082777
H           4.80395181534781   -0.68485613282321    2.77097692684924
H           6.72739305062478   -1.80049466163768    2.65454141794264
H           7.14308404700971   -4.52239263340275    1.58893441238933
H           6.52347509308139   -7.19138549648676    0.21098314061664
H           9.00384477281842   -4.00077061509138    2.07035680149304
H          12.85173252787836   -5.65673283295920    1.69310115918707
H           9.98337287028645   -7.72111074045095   -2.97996077221412
H          10.73319645084443  -11.92745791449213   -2.74352242456107
H          12.60972223031705  -13.32327671478384   -1.96812892053961
H          14.50218530606306  -13.39035432254359   -0.79733749909421
H          15.68543424326004  -11.22588591216790    0.92241225500205
H          15.70911597976436   -8.59087615143499    2.49285332115205
H          20.40300559113609  -12.71130679552687    2.63882592058471
H          20.12744643428681   -9.52709494234385    4.43519252540369
H          17.88355550316185   -8.30700285308004    3.91536428283755
