53
 SCF done       -118.911272181569          0.000718463538
C          -0.19735384961423    4.35456701459260   -1.95853466760807
S          -1.40608318292201    3.25836806832251   -1.39567149224465
C          -0.28966986570816    1.93076323694050   -1.49179998965188
O          -0.63692660313278    0.68570688194350   -1.11321796568806
C           0.93947955323075    2.32802751462521   -1.95212236728023
C           0.97374997740814    3.72991996398796   -2.20491713462025
C           2.09592918031260    1.45095118512301   -2.11655774636752
C           3.33509172636647    1.75886681710091   -1.65377401258726
F           3.68495017921750    2.87030751037032   -1.00467290990827
S           4.54067991668639    0.54447901304962   -1.94085971030050
C           3.32349158571148   -0.40835614679223   -2.71684894961077
F           3.67416774335745   -1.58746334749120   -3.23620972191695
C           2.08162176050068    0.16343268264461   -2.76473932362530
C           0.90682320086145   -0.35912452317552   -3.39987891829255
C           0.72862739612379   -1.59294584449691   -3.91129090330518
C          -0.51201601903062   -1.99266501957504   -4.48112194145157
S          -1.93125487737800   -0.98335290761572   -4.35166978254157
C          -2.94779627235158   -2.04945888695195   -5.27204998859384
C          -2.21585203597034   -3.17064465496790   -5.65138796640014
C          -0.85266825449603   -3.12150999962825   -5.19810678316147
N          -0.21533643522993   -4.23583846596133   -5.64627550130244
C          -1.12385275613604   -4.97452888196717   -6.36708700378113
N          -0.71630131657499   -6.18549931312846   -6.95487648420657
O           0.44712567572252   -6.51183249135224   -6.77311142104895
O          -1.53024332989531   -6.81663968964679   -7.59699019771348
C          -2.35613143928802   -4.36265616130445   -6.40200169814264
C          -4.33346785926410   -1.73195739293999   -5.47251616207735
C          -5.32857322721509   -2.65744386414066   -5.63709303328418
F          -5.18288286800382   -3.98125542157873   -5.66325882401640
S          -6.92493040185871   -2.00437799613675   -5.74767092317788
C          -6.23879255294041   -0.42449721976679   -5.55707074217814
F          -7.05287344123734    0.63097461774380   -5.58977081558219
C          -4.88150917141515   -0.39344006749788   -5.43315548878006
C          -4.07665941513695    0.80109366772627   -5.33507212394660
C          -4.45272528727651    1.96090234270753   -4.77047279296112
C          -3.60780627632053    3.10496043740350   -4.67670150337404
S          -1.94224098774505    3.06829038630320   -5.22240619796220
C          -1.72383256205600    4.73216681740790   -4.77125278311898
O          -0.55778651358245    5.37379161858581   -4.95326655814540
C          -2.85634874869721    5.26697309320021   -4.22967500943827
C          -3.91382410332360    4.34306140050574   -4.17564881417537
H          -0.44409452270214    5.38998508714250   -2.07291696672293
H          -1.54331293475523    0.66712344137718   -0.78658433769392
H           1.85362989302211    4.23456201800632   -2.55987970782510
H           0.08340534280636    0.33787226155555   -3.46204741670247
H           1.51673517160471   -2.33115226227902   -3.90538532943192
H           0.74329839307524   -4.51453300999863   -5.51049184311544
H          -3.22462142227193   -4.74224320365532   -6.89810557562555
H          -3.08561182290506    0.73209074353795   -5.76263177214741
H          -5.43550974203061    2.07491663282165   -4.33454260077468
H           0.10165959695902    4.79170553209388   -5.34781091721732
H          -2.91684670061120    6.28440032924388   -3.89162952959330
H          -4.88577949389154    4.58305645599184   -3.78331764957923
