100
 SCF done       -165.738048054173          0.000913915326
C           4.03921437835115    5.07454570432801    6.55181032912462
S           3.53376101151479    4.37647076816463    5.05479730058560
C           4.74442434807466    3.13712072588484    5.19255984039438
O           4.85466770880138    2.15537792808173    4.27327717994055
C           5.49444291320212    3.27311468652956    6.33353955699846
C           5.05982916941629    4.38774482537599    7.10812737240886
C           6.54459229286163    2.36466627984734    6.75538801756005
C           6.68075959419751    1.84215580834263    7.99994943462336
C           7.77019292443623    0.87798021132210    7.97723588538807
C           8.20901183398530    0.11879873933720    9.06260578137509
N           8.55816788483170   -0.54161748771955    9.93734180619294
C           8.26378004874198    0.79129700417315    6.70380691475967
C           7.53990856566721    1.72625061493744    5.88294363326611
C           7.80464094621171    2.01734804401982    4.56639269295441
C           8.53076290069268    1.13983924051540    3.61751545789646
C           8.74779069237107    1.86282667390281    2.47657543352194
C           8.16923076726746    3.17092499302746    2.65105620466589
C           7.56784774342020    3.24812883245231    3.88706766489800
C           8.21146862014648    4.19032677632162    1.69221079654037
N           8.24296888906230    5.02293009576540    0.90144110915817
C           8.75957289605429   -0.23464014251365    3.88755579998578
C           9.60097306845402   -1.06593298959640    3.22732131322786
C           9.88382408544929   -2.41182866020293    3.63586680135288
C           9.45495466153406   -2.92073112281488    4.85208931939544
C           9.84517280404224   -4.20028100950179    5.25903855366135
C           9.60861321094291   -4.88249753549685    6.45532605410688
C           8.83777544751694   -4.37485136877316    7.62112508156894
C           7.69491158695133   -5.33473455369690    8.01559055941270
N           6.60621821769702   -4.55959461835269    8.57013010243593
C           9.76769520282217   -4.08732501930904    8.82070361431595
N           9.00236643293762   -3.59492103269928    9.95215312126575
C          10.28609848003471   -6.15041870066105    6.34454152406964
C          10.42704310152652   -7.17859920153268    7.20906840675938
C          11.34118624975733   -8.31283056343959    6.90529632375001
C          11.77323417558446   -8.40385103497407    5.48161984872841
C          11.60305659934906   -7.38808090131520    4.61434981334565
C          10.91861761173973   -6.21584468605829    5.01876263764890
C          10.65961992715136   -5.01772706286956    4.37766459298593
C          11.06311488603259   -4.49446191854696    3.12902002616737
C          10.69718301536282   -3.23118964047076    2.78756237733966
C          12.53853520039664   -7.98701473849740    7.79791917627008
C          13.38084402837248   -6.99420568078731    7.50458258434225
C          14.52329222820100   -6.60970335922698    8.28647056124333
C          15.26817286659682   -7.39433811058898    9.11644241034524
C          16.40529420450328   -6.62862750450008    9.57551113901935
C          17.36758974224851   -7.10005988458451   10.47409466182479
N          18.15787931641272   -7.49797482529062   11.20717452476745
C          16.37460794102659   -5.38826905547314    8.98629387446103
C          15.19223056116385   -5.30414293898681    8.18322241550638
C          14.70478044552262   -4.17221745131940    7.56056930624922
C          15.47743577323239   -2.95553392548063    7.21550116963946
C          14.57569098600656   -1.99297794490144    6.84616541731465
C          13.25385008539901   -2.55268732803999    6.91762549163116
C          13.33728041793260   -3.87747001452391    7.29562198411401
C          12.08604666736786   -1.82886762319616    6.66235928722535
N          11.13835964539262   -1.20936264490538    6.46185751443205
C          16.89679041987818   -2.90304016152117    7.14368712768009
C          17.61789738750659   -1.76217499822324    7.00776582391709
C          19.03267551334192   -1.70936272249573    6.91542376640540
S          19.82227247502018   -0.15135638558127    6.76689498410826
C          21.38505543198600   -0.90307884740220    6.71649474198002
O          22.51949826362446   -0.19793890397420    6.59757823142438
C          21.29630183186839   -2.26562656217818    6.80995845519455
C          19.97411333752149   -2.71459344489033    6.92200047468219
H           3.53983026344860    5.95165692639160    6.91001008753227
H           4.19878291726353    2.26772972732344    3.57654459789116
H           5.52489479660393    4.66068600791673    8.03800743499800
H           6.08353364572022    2.05924357004820    8.86587356756158
H           9.13394873274230    0.23458940600610    6.41238856371836
H           9.21703939916839    1.52932692515540    1.57027273519230
H           7.10814358967265    4.12017666728679    4.31098168828738
H           8.18849949302636   -0.63074435246004    4.71254932468136
H          10.14532669389061   -0.69906148198223    2.36695310740267
H           8.85274576621338   -2.32857950380056    5.52014737727027
H           8.36130629480350   -3.42985642244717    7.34523671752227
H           8.08359277034201   -6.09717813962041    8.70926595106113
H           7.32687403590398   -5.84697405305693    7.11978541929578
H           6.94326794034947   -4.08088733829047    9.40086913825489
H           5.83065110541884   -5.15856246871189    8.82929012760605
H          10.54619944859384   -3.38206732160093    8.48472480271373
H          10.26347518772388   -5.01521339971468    9.12420410878127
H           8.71288357836332   -2.63156459518864    9.78970757764978
H           9.58053606508194   -3.58398197472426   10.78559294469118
H           9.97694539925167   -7.17011032167320    8.19059581261696
H          10.91372668044752   -9.26324913338122    7.23788306781272
H          12.29486612522738   -9.30438857897881    5.19680013164293
H          11.96696343459917   -7.45747861829111    3.59946988516118
H          11.67045676558630   -5.09511981690694    2.46761192196280
H          11.01685241676035   -2.81387292222794    1.84317834171957
H          12.63090566761849   -8.55445066808654    8.71110430252953
H          13.22244977827027   -6.42721495374181    6.59625214605555
H          15.09190080516597   -8.42199737812592    9.37346324564760
H          17.04751512566856   -4.57996008857143    9.19898979000615
H          14.78504605238038   -0.99508052067003    6.51090413294600
H          12.50282125554258   -4.52469476175305    7.48585337805356
H          17.41857647450413   -3.84739198478913    7.17934308801301
H          17.10568949745003   -0.81069617959476    6.98422452305337
H          22.34308757281017    0.74906775140197    6.55395733965266
H          22.15941194162993   -2.90389668461434    6.79802328296480
H          19.71860370247627   -3.75462696568158    7.00726699379661
