66
 SCF done       -115.219432953718          0.000260793224
C           0.18925788160698    1.58754537628259   -3.32093168998313
S           1.06340657973549    2.81619139865232   -2.47896325039461
C           2.20005575003250    1.64251564551789   -1.88469444401963
O           3.24991568050694    2.01627135644316   -1.12583856946270
C           1.89757052178134    0.36905360194044   -2.30491791841604
C           0.74039778773426    0.37019786394271   -3.14431514479752
C           2.64698788135020   -0.82928528010721   -2.02377881441633
C           3.32585472987375   -1.23019531680962   -0.87430800483094
C           3.96028055552317   -2.50454040907014   -1.02792606726397
C           4.68324437910286   -3.05523227657781    0.04901933983276
C           4.74890681680410   -2.37754357624743    1.23173670600115
C           4.09309738761766   -1.14009362426646    1.39597996490509
C           3.39169787065820   -0.57216598340111    0.37398523927245
C           3.75442436225883   -3.07732383251819   -2.29105169920935
S           2.77170137087690   -2.02644422756086   -3.26486830787115
C           4.23264511215356   -4.31826875362750   -2.76037627872559
C           4.00352924446897   -4.80814759563175   -4.00456800054613
C           4.45371642178189   -6.05234105059713   -4.54237600456625
C           4.13290708037776   -6.36263491261257   -5.86475511141906
C           4.52363675672109   -7.53115060475376   -6.49209887578023
C           5.28463921109733   -8.49553332473251   -5.83667692818471
C           5.58462370758655   -8.24949797259618   -4.46163382717614
N           6.25483554895617   -9.19224596655230   -3.78500721573544
C           6.53789175737802   -8.98761621716301   -2.52479865924276
C           6.15522093218356   -7.79942428947511   -1.88881907876287
N           5.50370830818716   -6.85692433112650   -2.52165920618706
C           5.19190143259943   -7.03925302536829   -3.81648837687747
C           5.71673645820624   -9.71245564290027   -6.44446632161263
C           5.92139365416394  -10.01676410065339   -7.80070736473087
C           6.23344919927828  -11.39598541097892   -8.01377774868614
C           6.45592657988839  -11.86761345684091   -9.32095697550918
C           6.40778127581129  -10.99759099981101  -10.37327030774081
C           6.17076799600565   -9.62806664818244  -10.15919599924646
C           5.93635406020749   -9.13929866896698   -8.90458078260452
C           6.28834578590012  -12.13225014894736   -6.81800036132892
S           6.01267354212643  -11.09887073293621   -5.45374086682499
C           6.55584559832530  -13.51178348882421   -6.67480223580306
C           6.59527063135209  -14.16064894483225   -5.48373253391798
C           6.85340625050101  -15.54586712390882   -5.31544549333746
S           6.84311451512492  -16.22268702257893   -3.69800460951583
C           7.20437934316258  -17.80608290541097   -4.31443696940651
O           7.33893119514641  -18.87674394269088   -3.50900604035186
C           7.32401670351701  -17.80449596036082   -5.67417049706258
C           7.12561243298387  -16.53179012892939   -6.23365102383267
H          -0.67929437767217    1.86137290746820   -3.88449557775248
H           3.31536911787342    2.97713293351095   -1.08440413329758
H           0.34842808640818   -0.53124761727961   -3.57990734741877
H           5.17175611247265   -4.01000881176927   -0.07033575338849
H           5.29977632737855   -2.79197833300275    2.06328011109688
H           4.14875919432144   -0.64304663797321    2.35330447054869
H           2.88464844224819    0.36835207068139    0.50687451744441
H           4.81842097912384   -4.90552678672611   -2.07065432281714
H           3.41964897481299   -4.20074169886049   -4.68885379472488
H           3.53854184529999   -5.65355103042443   -6.42417016633948
H           4.18826721538230   -7.71533671774991   -7.50011678822267
H           7.07733790592512   -9.77084494984006   -2.01031455154874
H           6.38497524869524   -7.61249037309266   -0.84791180132165
H           6.67577891834696  -12.91179697877213   -9.48349176673667
H           6.57800654676913  -11.35168321361339  -11.37921369850409
H           6.18698525034926   -8.95480558724141  -11.00373319809738
H           5.80307397387355   -8.07998320223880   -8.75440741745757
H           6.72904280846068  -14.06635981961353   -7.58593129995890
H           6.41702564845284  -13.59366308199595   -4.57936360625733
H           7.21917257414040  -18.62809185812241   -2.58559357030144
H           7.54625894070590  -18.69095836415689   -6.23814973287701
H           7.18338997596161  -16.34500019347930   -7.29016421673814
