59
 SCF done       -129.111163868552          0.000204204136
O           1.48688283769518   -0.52117596108025    0.00491464154208
N           2.46543589351692    0.18999894365575    0.13114099071920
O           2.98153481715369    0.84385775729694   -0.76465382104316
C           3.06366042754177    0.27931272026399    1.39671179319407
C           2.70398510926697   -0.33860128869498    2.57759304409621
C           3.64010095037791    0.09829798643348    3.53657183732215
C           3.94306369972739   -0.06544188612477    4.89042783230919
C           3.28978314292929   -0.85457828419383    5.85661650016224
C           3.58705912478347   -1.03735606782017    7.21013607372215
C           2.62308892151100   -1.92137874856961    7.68876865031650
C           1.79264388772303   -2.22501947654358    6.59372835271691
O           2.18968560512358   -1.58690449229053    5.49241547750393
C           0.79227544654889   -3.12328875370953    7.03539623834605
O          -0.26727251519243   -3.78941265922254    6.57449728793172
C          -0.76614610321023   -4.48963453839372    7.63922637774278
C          -1.91996606136040   -5.30229065231632    7.44690384988066
C          -2.63411233981680   -5.50448483708100    6.29405982148041
C          -3.72819435248514   -6.37077672016981    6.46354950982154
C          -3.84125482626283   -6.82373700387218    7.74611573266233
O          -4.75467751904745   -7.65832425793183    8.27921198072430
S          -2.60406279118795   -6.19814318342403    8.78288233232174
C          -0.01496100990154   -4.26556634511593    8.78511565573934
C           0.99970552605759   -3.37864119633822    8.40180780594558
C           2.15901008882719   -2.63769075835607    8.87745200904691
S           2.79601623056215   -2.60738787257811   10.37420601102225
S           5.34321602493124    0.88869212055287    5.29894791317912
C           5.54016466535831    1.51016299169116    3.67508210662298
C           6.58608256506053    2.40008834256488    3.33358962001516
C           7.59136391156545    2.95226194450905    4.12062958000857
C           8.34491962398478    3.75280965080230    3.25717284321183
C           7.74751982376162    3.63557015435504    1.99408782956300
O           6.68663616994197    2.82364374623257    2.03105347293975
C           8.48553700814272    4.43005032898783    1.07872488950498
O           8.49733465521307    4.76968992617139   -0.20866626523886
C           9.56481697051583    5.61020804100795   -0.36875236438700
C           9.82399823612577    6.13589114631262   -1.67945812898439
C           9.03563073715874    5.82901610890343   -2.82930822125474
C           9.46468169184721    6.43348379750894   -3.95547711713492
S          10.85936052233862    7.41432010866546   -3.67225402171924
C          10.85624149441684    6.99177903101032   -1.99090097751385
O          11.77497851935268    7.46957620238573   -1.13255309922338
C          10.23485241842435    5.80541350738616    0.82754911544522
C           9.53859240271046    5.03977255240596    1.77577504802293
C           9.50160623623494    4.64575418103358    3.17756020764699
S          10.50527492798001    5.08703492523160    4.37952163619097
C           4.54589895076689    0.98349933540588    2.87123551318170
N           4.17241361032184    1.07625414259550    1.56921299612624
H           1.88043355553436   -1.00792742203626    2.71676422143876
H           4.39745541900239   -0.57618344552166    7.73627116414252
H          -2.37355726125604   -5.04141618506061    5.36023501384239
H          -4.40320336508900   -6.64776201718647    5.67302559937273
H          -5.38786231383745   -7.93443504708040    7.60517266519991
H          -0.19820879319556   -4.69580549735815    9.74792751954368
H           7.72984631884573    2.77836589692732    5.16764207174004
H           8.18410467224948    5.17562312494576   -2.78412719206384
H           9.06292539600454    6.37773746308853   -4.94653958960699
H          12.39741520347415    8.05241456422137   -1.58374119348457
H          11.10029231148582    6.41747338276879    0.96779609315030
H           4.60010349971306    1.61584047276670    0.83325506528827
