115
 SCF done       -175.165298016701          0.000635954493
C           4.82881184516292    1.53722591190183   -0.00631300821404
C           4.73873115653248    1.20546164051658   -1.28925052146174
C           5.47641991355642    0.15271976714205   -1.97340873122193
C           5.20359452223566   -0.09936296291568   -3.32048170406262
C           5.87441564825710   -1.08104262167125   -4.01680734680028
C           6.85237599540342   -1.85288944830854   -3.39006587899340
C           7.56188865376347   -2.92007126779577   -4.10848262889526
C           8.04817399418243   -2.75480743537450   -5.36125442601138
C           8.08991688594658   -1.43763720966280   -6.01962444850645
C           8.56004242163213   -0.31199995300448   -5.34577897202711
C           8.61286734785736    0.91379233266779   -5.98099101648388
C           8.20013140261058    1.03609208961861   -7.29784956976491
C           7.74370711887091   -0.07914624431730   -7.98051721409338
C           7.69499072580825   -1.30807902612166   -7.34988701586526
C           8.57462201217293   -3.86849007798381   -6.16014239340029
C           7.91544059375097   -5.09780286581791   -6.22177031964955
C           8.40921772927372   -6.12074886427141   -6.99902522896867
C           9.57371758985504   -5.95945765171432   -7.76061544077529
C          10.03006137063278   -7.05912623046673   -8.57674065674746
C          10.98582652584030   -7.01151559403813   -9.52571542158227
C          11.33586022843753   -8.14818776023381  -10.30044033101712
C          12.20711355758626   -8.25955135560734  -11.32262393579783
C          12.28928545380393   -9.57458801852814  -11.89252225375093
C          12.95303884525699  -10.20002023666143  -12.92351137480249
N          12.54289983253406  -11.49861849200882  -12.94611531683350
C          11.63039655771760  -11.74231058501523  -11.94907792165649
C          11.00376578172707  -13.02353605933765  -11.70670918573573
C          11.00774064160027  -14.04646759911697  -12.65634928027080
C          10.37747145471138  -15.24511926515199  -12.39614451444134
C           9.74488047940388  -15.46902879260232  -11.17391221126856
C           9.05280894279122  -16.74149792908735  -10.92378191905548
C           9.17269193667725  -17.41839194245715   -9.75839990655083
C          10.16777197547435  -17.05461829880898   -8.73692672483837
C           9.81507870206207  -17.03921096356449   -7.38884294454172
C          10.74788908973125  -16.71246334643048   -6.42277974614375
C          12.04977644987565  -16.41015234289234   -6.78559260732433
C          12.41529636997794  -16.44226880596267   -8.12132237892648
C          11.48400185442622  -16.76251548477251   -9.09009450083589
C           8.32261597691042  -18.57244025966414   -9.43340707907186
C           6.94435507038584  -18.53497067063568   -9.64661535808984
C           6.15027501980190  -19.61489247383006   -9.32957332665891
C           6.70055881814527  -20.77859981878669   -8.78740859623674
C           5.90779904012469  -21.95292687692489   -8.45098987208285
C           4.61049421227110  -22.12783113407665   -8.67558446628087
C           8.07771259938242  -20.80210011677837   -8.55577287450028
C           8.87380508080155  -19.71977987819877   -8.86476737731395
C           8.21641210046064  -17.22559320193957  -12.03509146148340
C           7.38604540377663  -16.34101144275449  -12.72107917447840
C           6.60603784208815  -16.78329723473246  -13.77286303363470
C           6.65405206085730  -18.11055853214224  -14.16571145064161
C           7.49151952084989  -18.99306619563013  -13.50300085617871
C           8.26759122403673  -18.55606296232485  -12.44677487473911
C           9.73647535386374  -14.44217847017535  -10.22809187684663
C          10.35022345146377  -13.23726181677643  -10.48914184665017
C          11.46402039092710  -10.55220875332914  -11.28137541063088
S          10.55469025743934   -9.76064523011899   -9.97860384439971
O          10.93443937986760  -10.27188846507400   -8.68589633371384
O           9.14542348111322   -9.73447007795142  -10.27389031357785
C          10.22755966483069   -4.72357928641849   -7.69844320504610
C           9.73459825821639   -3.70064456900161   -6.91953095544154
C           7.71361057686961   -4.18346078234469   -3.36781908234372
C           8.93726238676082   -4.84944091750013   -3.32783142992976
C           9.07069493113152   -6.02781430717650   -2.61918036640101
C           7.98756447248303   -6.55856518780145   -1.93757650695094
C           6.77154156424368   -5.89601272090468   -1.95778193627156
C           6.63607443337496   -4.71372875897753   -2.66081873327919
C           7.11563561316445   -1.61835574289557   -2.03995405364099
C           6.44799517797837   -0.63119306228314   -1.34786417858714
H           4.23792839570822    2.33642102764852    0.40738393611434
H           5.48749335936196    1.03598735399073    0.68190082905103
H           4.05149755120060    1.75399871423620   -1.92280254828182
H           4.44613750943972    0.48514736157185   -3.82416226899335
H           5.63381757381597   -1.26615683197032   -5.05339249972220
H           8.89397505974072   -0.40581711845839   -4.32279143618279
H           8.98057089755540    1.77814173847117   -5.44728735682408
H           8.23937100849301    1.99590133228888   -7.79160776221923
H           7.42600455884005    0.00881318644077   -9.00944905452665
H           7.33655602081920   -2.17745256536949   -7.88309200883322
H           7.00218402326187   -5.23875733724722   -5.66287544292980
H           7.88507402514682   -7.06433902043658   -7.04077926228910
H           9.52388272021902   -8.00260681838943   -8.42194399122105
H          11.51258893507928   -6.09242980357212   -9.75221253112689
H          12.79605814593688   -7.43943692997985  -11.70401007695935
H          13.66849097523885   -9.82574213706473  -13.62806972637153
H          12.88073056118970  -12.19662549922977  -13.58853664446960
H          11.48361371114100  -13.90239085304770  -13.61643828590748
H          10.37961468158075  -16.02731723185781  -13.14236095246503
H           8.79840350387673  -17.27172858543970   -7.10464509068978
H          10.45864568133478  -16.69414487462008   -5.38210711026307
H          12.77825852896443  -16.15526961163829   -6.03028526108918
H          13.43258487176635  -16.21933986387412   -8.40869631307667
H          11.77628727157263  -16.80176946928885  -10.12936751914643
H           6.49633146060943  -17.64009966836918  -10.05300274290995
H           5.08673385553734  -19.55132338411706   -9.50033525549067
H           6.46735768469775  -22.75022565212961   -7.97570862470831
H           3.99429292044896  -21.38219019820552   -9.14775697923561
H           4.11116335454121  -23.03798452841716   -8.39034691464297
H           8.52659270332887  -21.68796889655532   -8.12816172541726
H           9.93837308096563  -19.76111247969910   -8.68069593190783
H           7.34470642476134  -15.30586185406063  -12.41254486882039
H           5.95826763258196  -16.08951041388474  -14.28891248810527
H           6.04528749071622  -18.45502520611657  -14.98874873511347
H           7.54187077612343  -20.02683124803614  -13.81277103419211
H           8.92817128250564  -19.24424234546841  -11.94011059570679
H           9.22913534021779  -14.59254006414280   -9.28734024005934
H          10.33412548542270  -12.44621091458044   -9.75532695599513
H          11.13715290709636   -4.56694650338503   -8.25797149613188
H          10.25729504853350   -2.75499032508520   -6.87973256830067
H           9.78668625834749   -4.43189212379592   -3.84845599155225
H          10.02435405295718   -6.53458425772563   -2.59729968911228
H           8.09247679420829   -7.48280545374434   -1.38888396222147
H           5.92512475724841   -6.30211843655684   -1.42300441824120
H           5.68551087681182   -4.19901386373652   -2.67911510781500
H           7.86649302846776   -2.21305242089662   -1.53842370463265
H           6.68539224126307   -0.46668398669650   -0.30812271948379
