110
 SCF done       -224.943123207320          0.000465479911
C          -6.78889745867761   -4.81863934070848    5.55882451250352
S          -5.20239059959911   -5.39625672560957    5.34986718983994
C          -5.26936383257981   -5.15103160022508    3.63132689448847
C          -6.51548776049568   -4.66926731771015    3.25939537776198
C          -7.37296641258943   -4.46852524865083    4.37369493424974
C          -8.76868035860868   -3.91664769714645    4.33239671710230
F          -9.18701309008347   -3.58706540164097    5.56559055599236
F          -8.86378251421033   -2.80385648024449    3.59517315305507
F          -9.66544140672623   -4.79212788112140    3.85939170605852
C          -6.93397182716205   -4.47092671398071    1.83483401826946
F          -6.48739650525307   -5.45654642283599    1.03544583328879
F          -8.25436001562178   -4.43845476595597    1.66801122130795
F          -6.45778149302845   -3.32335685283076    1.30596091764258
C          -4.08812849912260   -5.44951365414842    2.88383340394599
C          -3.73521113142275   -4.94764262776988    1.68016226036724
C          -2.51815731785089   -5.33537097124013    1.04609352268465
N          -1.65401114264879   -6.15174827139045    1.63064767411941
C          -0.64532562000546   -6.31080218323279    0.75011569693094
C          -0.88189916646709   -5.54887471632424   -0.48158126036894
C           0.22644670966170   -5.74782910955128   -1.42545285330230
O           0.36743386520931   -5.28917347889173   -2.54153286032873
C           1.12768592953299   -6.65190680390684   -0.68562120827510
C           0.55623013510606   -6.97212204295054    0.63683380482652
N           1.37449018112697   -7.80489362758848    1.32448533188868
C           2.39532023967162   -8.01504199670000    0.52856961685886
C           2.30540343975437   -7.32538909531026   -0.74343627200195
C          -2.08716008172361   -4.90711958999667   -0.30475841230575
C          -2.81804193115716   -4.03892594744666   -1.16146050550538
C          -2.39175494506958   -3.71322396248846   -2.40451242442559
C          -3.05895817386597   -2.85937423994736   -3.34607140034058
C          -2.51975409491628   -2.74989122551380   -4.61544680566118
C          -3.13520740567139   -1.94442610433248   -5.58788013869117
C          -2.81707227313720   -1.68707657803502   -6.92087990081379
C          -1.68393086577906   -2.21231390937745   -7.72635183590519
C          -0.31970735020059   -1.69416296090264   -7.19940397318408
N          -0.11989963136888   -0.27012284039172   -7.35468101266812
C          -1.65812708993866   -3.75220247726868   -7.79064449179949
N          -0.68729303467259   -4.16930437885153   -8.78559863698837
C          -3.80629858694390   -0.75563752560199   -7.41244071807284
C          -3.96075480123543   -0.17223477461763   -8.61624254335970
C          -5.08210446537484    0.76273080641982   -8.89413982061954
C          -6.01953689029643    0.98048411131791   -7.74309511181492
C          -5.83425284621848    0.40783546538979   -6.53741841968649
C          -4.75008457103763   -0.47171879663449   -6.32159023254028
C          -4.33412819243081   -1.20094584718064   -5.22350920279572
C          -4.86188488613285   -1.32076648115015   -3.91806151806095
C          -4.24779975956728   -2.12910984718830   -3.01714616110636
C          -4.61544099194433    2.14063212080132   -9.27368936979757
C          -3.42556909180718    2.66778064701693   -8.94888638561556
C          -3.08255120230215    4.00427357539485   -9.32406739410772
N          -3.94606164777292    4.79199039853723   -9.94636941185409
C          -3.29898468400069    5.95319186197799  -10.16494195346090
C          -1.92132038146031    5.90188976053225   -9.65190839845758
C          -1.22129061521645    7.17010279967454   -9.92335215549354
O          -0.07423291211440    7.46475746273563   -9.67099390602511
C          -2.26027432654106    7.97251922976044  -10.59350727705423
C          -3.50908064683077    7.19052593815263  -10.72400963177759
N          -4.46785032586470    7.92038699881319  -11.34325146215423
C          -3.90594265489395    9.07814015776305  -11.59642474130043
C          -2.52913259346198    9.17844307477249  -11.15590119631550
C          -1.76806231933325    4.65354908900076   -9.10261897446505
C          -0.64618029110789    4.05178325840023   -8.46764300029044
C           0.53232607962235    4.68122220626628   -8.25600288339059
C           1.64701821036271    4.02388697548670   -7.65733431341720
S           1.58314652175913    2.31782559004004   -7.32786588527256
C           3.21580390182167    2.27856395921044   -6.76335633398236
C           3.78739198948209    3.53576985811962   -6.84854965517488
C           2.88815691800972    4.53109314174745   -7.30963653028033
C           3.20642875779444    5.99905921669714   -7.34391989030933
F           2.11800154287979    6.75514049431235   -7.13744782410027
F           4.06639908875209    6.35623234109667   -6.37966919379046
F           3.73377306688120    6.39350243630798   -8.51168475066980
C           5.23034924192857    3.81104935045365   -6.53796389803947
F           6.01454229240727    2.73607186650359   -6.73953297754387
F           5.74990235878373    4.76835618718932   -7.31240994311234
F           5.43022653781140    4.17391777161796   -5.25972337554324
C           3.76627376098394    1.04684943308262   -6.26019909182893
C           3.08679918361547   -0.09871479397319   -6.24299768641506
H          -7.22789447094192   -4.75335171132872    6.53474699093792
H          -3.38106159876513   -6.11312588908068    3.36476917876737
H          -4.34801524780594   -4.22995939734064    1.16124189102356
H           3.20424447508597   -8.65312944053294    0.83938402997412
H           3.03482741772020   -7.36731666642731   -1.52806338943870
H          -3.75144976437491   -3.65137967261097   -0.78004107756704
H          -1.45928620375731   -4.14205523158357   -2.74880723424116
H          -1.61993459736405   -3.29815052749529   -4.84847741346212
H          -1.78989898335519   -1.85245526712986   -8.75746985403640
H           0.46401558847143   -2.21645805570571   -7.75224127087409
H          -0.22178614336852   -1.93041102825574   -6.13881064008414
H          -0.19219208740742   -0.00286772129630   -8.33053763312483
H          -0.81556099174772    0.24663277293019   -6.82701545172657
H          -2.68052146631713   -4.11332801489122   -7.99287742823688
H          -1.34215364924495   -4.15809822132167   -6.82935935167871
H          -1.02311600903421   -3.97291186537101   -9.72253765396393
H          -0.50869803798602   -5.16386903261258   -8.71999388781889
H          -3.27873621931316   -0.35085839231600   -9.43723014765713
H          -5.65142873870145    0.36090053743024   -9.74637336067175
H          -6.84397540101165    1.65127383720144   -7.92519541422242
H          -6.52430227772759    0.59870167743310   -5.72879825556137
H          -5.75123936072878   -0.76919224165476   -3.65200212504408
H          -4.65466663384013   -2.21861053395662   -2.02258178334575
H          -5.32229494039906    2.76488896844705   -9.80121929916808
H          -2.68979487690267    2.08968699436321   -8.40768142044501
H          -4.46288897005234    9.85441047614227  -12.09193303708435
H          -1.89838999719516   10.03756904549337  -11.26995252472410
H          -0.75463590560425    3.02531572161366   -8.13911533770908
H           0.65413324368352    5.70917760765169   -8.56889678193376
H           4.77168450789474    1.09061052282473   -5.87042678743023
H           2.07622625775952   -0.16877464542847   -6.61734334175478
H           3.52768384229374   -0.99514888134939   -5.84488731907707
