106
 SCF done       -242.471339956225          0.000467305384
C          -4.07410589902538  -14.03682890588246    6.33970241407703
S          -3.62048393893331  -13.58968806433677    4.76125394887036
C          -3.40152497054539  -11.93824603882211    5.23180220654035
C          -3.67451328058368  -11.77148374864990    6.57708669248519
C          -4.06195951300556  -12.98142993859423    7.20830867395294
C          -4.42559854267544  -13.15379883240563    8.65397599229990
F          -4.78418111681976  -14.42327256867557    8.90903711642036
F          -3.40779520263005  -12.88173586225198    9.48099372373476
F          -5.46096768957270  -12.39174472136132    9.02526991023465
C          -3.53785772828265  -10.43052291433412    7.23164653088294
F          -2.29862592707948   -9.92299214799231    7.05809315269299
F          -4.37763141286547   -9.52287943058122    6.70099987194700
F          -3.76002610326290  -10.43535531540390    8.54192237911201
C          -2.99228935078717  -10.93439458113078    4.29457825212802
C          -2.63236191998567  -11.20916986261307    3.03430007036565
C          -2.17011877071148  -10.20544852573020    2.09088145118031
C          -0.95520289374584  -10.37470640403853    1.41397059235347
C          -0.09228419267557  -11.55394093209140    1.58170854982642
O          -0.25778504143396  -12.49300372945092    2.30575260214392
S           1.32285180159871  -11.39581247751139    0.49062809321980
C           0.79026067998294   -9.79915151818200   -0.14801038078158
O           1.38386083675120   -9.21328391243950   -1.00574181054602
C          -0.45715971418510   -9.41488503706056    0.52792614393276
C          -1.13297658632520   -8.21365132323934    0.28343651773981
C          -2.36527188412231   -8.05767008714362    0.92814442953788
C          -2.88030014487808   -9.03160325714828    1.79330322731795
C          -4.24621687009582   -8.75575027769738    2.26936712629932
O          -4.97854488173615   -9.45902827874497    2.89874086761592
S          -4.74858224591874   -7.13172123104153    1.67384684770517
C          -3.22032062642861   -6.86535751296435    0.77941912188512
O          -2.99376423109260   -5.85510782653354    0.17613593464335
C          -0.57065138017862   -7.18717117372358   -0.60437269666066
C          -1.22882678850119   -6.83869131975017   -1.75654961240054
C          -0.67867509483377   -5.86051020948750   -2.60658415439573
C          -1.13951390586327   -5.28974078915247   -3.79440130414382
C          -2.42588433744232   -5.46779853085851   -4.51714898697105
C          -2.34113272240349   -6.71204968279686   -5.43477346392751
N          -1.50322071614587   -6.41791140470430   -6.57962986591309
C          -3.65949702664230   -5.55811311151157   -3.59633315090428
N          -3.68148932635079   -4.44170040292718   -2.67618559187745
C          -0.07946385365256   -4.43551876604830   -4.27636909587507
C           0.05825662154530   -3.78493311992397   -5.44841963076552
C           1.32923488709041   -3.08233642038072   -5.77735468448241
C           2.27716421222689   -2.92815109446420   -4.63579018395349
C           2.12591803038856   -3.60404376660972   -3.47626775341994
C           0.99348978511817   -4.42376756792679   -3.28422667868002
C           0.61377941190598   -5.29468447381848   -2.26390969173823
C           1.25696685550771   -5.66765986686124   -1.07189422209507
C           0.66847736858083   -6.58871671855043   -0.25509459004055
C           1.02059159839781   -1.80950620883001   -6.51730176463100
C           0.99077165672440   -0.61546945233404   -5.94073255944499
C           0.69853126901837    0.60865240183780   -6.67677751492540
C          -0.44093662926145    0.77834977137216   -7.47830096901318
C          -1.54089401075801   -0.19233489737482   -7.60950471502327
O          -1.68145629022582   -1.25578087145686   -7.07682564418456
S          -2.76742878981047    0.46479474032954   -8.75295784923662
C          -1.85966176148103    1.97934027920759   -9.03699321145118
O          -2.22709034463212    2.84991065153530   -9.77186974438552
C          -0.63848663173149    1.94906045007692   -8.22101964356407
C           0.27684559191723    3.00165008740856   -8.20685416612918
C           1.37975334300962    2.85815637318316   -7.36646137812474
C           1.58685092843603    1.69116954305736   -6.62593965856767
C           2.84044200599619    1.68835415602345   -5.85724882996444
O           3.29161576945434    0.80856144743208   -5.18137729287847
S           3.67042100628410    3.26623773148299   -6.09011044009217
C           2.41262605813599    3.89194039108346   -7.20215989878294
O           2.43790756774151    4.98346761305781   -7.69169749546549
C           0.12185690869867    4.18025728776232   -9.06023822188920
S          -0.81511043941402    5.53190693450858   -8.56402085155893
C          -0.47064140889616    6.39161370328476  -10.02496752805767
C           0.36671619136821    5.66113489401906  -10.83612505667480
C           0.68504308111589    4.38530976203301  -10.29189108299833
C           1.52562048990490    3.34631715049731  -10.97002206186030
F           1.29551951355607    2.11004329319473  -10.47312558087511
F           1.28530675323033    3.25417700305164  -12.27929830790969
F           2.84163594461177    3.54783300388363  -10.81237190642374
C           0.96083030734509    6.19164731837440  -12.10672665389363
F           1.16236709896285    7.51845516508209  -12.05794157071834
F           2.15304270665947    5.65753863806670  -12.38388037745465
F           0.18049449355446    5.97092266476226  -13.18074586835795
C          -1.09693908900055    7.68318735316517  -10.21784426815879
C          -1.53454989344282    8.15409439902452  -11.37943479719402
H          -4.33072755600959  -15.05259984588388    6.56774847161073
H          -2.96372681799617   -9.91756421637128    4.65847160608230
H          -2.59453650511711  -12.23602092289415    2.69455652926282
H          -2.14687764516008   -7.34090816649745   -2.01802124035248
H          -2.56844407122450   -4.59083132511765   -5.15511770689517
H          -3.36664191014625   -7.00545548700391   -5.71097126213912
H          -1.88832303309720   -7.53835296880136   -4.88129849852991
H          -1.99405534896895   -5.81926915671986   -7.23477497809184
H          -1.23352752042373   -7.26471692624918   -7.06444035928808
H          -3.68562707655885   -6.54319658995255   -3.10299586368214
H          -4.55164319052288   -5.48876615255837   -4.22628691932576
H          -2.96755055181885   -4.54481703528522   -1.96277070871488
H          -4.57637957733593   -4.38031826172685   -2.20567242919739
H          -0.71430360016147   -3.77556264562723   -6.20093527375928
H           1.83628523003867   -3.74576318823792   -6.50214979735513
H           3.12697362783231   -2.28509230251074   -4.80487134488092
H           2.85941280639886   -3.51887640046345   -2.68860888783906
H           2.20873303732211   -5.23029114492362   -0.81247252735358
H           1.14009692762025   -6.88214810893352    0.67063643685742
H           0.78925165125480   -1.91824857842792   -7.56721741707237
H           1.26599849277997   -0.49611652380587   -4.90220579822386
H          -1.25467274172842    8.24405622682880   -9.30627344742120
H          -1.44890756821799    7.60426899280022  -12.30014777608675
H          -2.00884671365218    9.11750163422376  -11.43951878918259
