70
 SCF done       -129.386114465204          0.000680968715
C          -4.75037665144917    5.41139535724135    0.25707922772355
C          -4.10794369161528    5.81917796986014   -0.84767195360935
C          -2.71643223876193    5.41056539554861   -0.77979756709550
C          -2.47120709392927    4.73407551241039    0.37875502824615
C          -3.78050226059229    4.70959752399702    1.14004194988980
O          -4.01622836460352    4.26338853044449    2.23460153351427
C          -1.17660625823216    4.22782004777076    0.70292010357123
N          -0.16758635494662    4.63026476544889   -0.06471232655887
C           0.93471423389329    4.02491973214681    0.40828163185290
C           0.62391158853831    3.17173318291461    1.55744987547837
C           1.84294857137577    2.51290792149415    2.04526031328411
O           1.97182467148841    1.73623380341892    2.97265104137342
C           2.88001442189053    3.01989666317736    1.12932268978740
C           2.28437978572109    3.93998156340511    0.14379033828820
N           3.22607763226311    4.40150675048581   -0.71298938736551
C           4.34565870165407    3.83555122169926   -0.32711687711125
C           4.20093105279114    2.95865825366309    0.81614236484401
C          -0.73640184488002    3.28365830777565    1.76331220492073
C          -1.55613114160031    2.63837336051308    2.72209969043688
C          -1.05567879172419    1.78299828330052    3.65348419120766
C          -1.83040832701460    1.11604496464958    4.62943413937299
N          -1.23610279749941    0.23049311379083    5.50192966923001
C          -2.19089064454026   -0.27924565444103    6.32075383440371
C          -2.41796888354819   -1.15753237631444    7.36365801585393
C          -3.80315492619556   -1.09821857255567    7.63110287858491
N          -4.39262524749752   -0.19485553363893    6.76578755468164
C          -3.43695646893939    0.31699638975969    5.95250122996181
C          -3.20998171505226    1.18681088421727    4.89774901423590
C          -4.56573981092971   -1.80626974155375    8.57302072787227
C          -4.07689963228143   -2.73606175396394    9.44929381931523
C          -4.92170168827077   -3.42701131067244   10.33671108725344
N          -6.24081034792466   -3.20930191573988   10.38156105594685
C          -6.72012312243878   -4.04371937657497   11.30940702681838
C          -5.65423914666941   -4.86116364654967   11.91236238614976
C          -6.21496614615300   -5.77252845583177   12.92305936004500
O          -5.63304695430295   -6.58804939192205   13.61125759966950
C          -7.64912742713631   -5.45291262860422   12.88797966618149
C          -7.91947645028404   -4.39878631028963   11.89622869577570
N          -9.23671879087039   -4.10070681360975   11.85903154456479
C          -9.79203755782167   -4.89251375598861   12.75328489696807
C          -8.86126724016901   -5.75918876442336   13.42994758002834
C          -4.48772088755395   -4.47249797756158   11.29820622817518
C          -3.14928030500179   -4.91054976164976   11.47294519529831
C          -2.78792813854705   -5.88249774133214   12.35059960311198
C          -1.45577319342857   -6.33031807178554   12.53416936190885
C          -1.02366530420596   -7.28925471293304   13.39357856285075
C           0.41725458317444   -7.44871909560018   13.27823683384611
C           0.90329394202617   -6.60421223821003   12.35420695145488
C          -0.22623710634439   -5.82296778452783   11.79680057117957
O          -0.17380805455910   -4.97274156785144   10.94154904597111
H          -5.77871485567846    5.55423949708334    0.52890555376100
H          -4.52401504252676    6.36349458620757   -1.67648564035569
H          -1.98280643068942    5.60394907200989   -1.54037950182770
H           5.26492679933889    4.03971169170010   -0.84805620840259
H           4.99132361531806    2.40262724018082    1.28052592602552
H          -2.61214660691041    2.84862760862065    2.70536662076250
H           0.00723954006373    1.57689877805555    3.66609023934339
H          -0.25324861413759    0.01362634908479    5.50049337719601
H          -1.70791174437973   -1.77093844882742    7.87947410724616
H          -5.37472474670757    0.02246355164024    6.75781349519726
H          -3.91548955029743    1.80399758441114    4.38020669845408
H          -5.63090348570899   -1.61712974987374    8.60742734210418
H          -3.02278638185383   -2.96586468286551    9.46418252071903
H         -10.85411619148319   -4.85424839187215   12.92367850284207
H          -9.10939509307216   -6.47532306118100   14.18835400863343
H          -2.38809173830029   -4.43837203228804   10.86990262385812
H          -3.54477665338917   -6.36141530053221   12.96056789979936
H          -1.63763215410697   -7.85628821951199   14.06924651112931
H           0.97994937835772   -8.15408963682414   13.86436205400870
H           1.91952177886101   -6.47652098023106   12.03417566010822
