84
 SCF done       -144.612608728232          0.000655191477
C           2.70134836693402    5.89264657304940    3.52319719079283
C           3.64686079208102    5.93494177044046    2.57234923458886
C           3.03204864250872    6.00847412053427    1.25523485967342
C           1.67887512976922    6.00340030440297    1.37570800283936
C           1.37192063637931    5.93466030920898    2.86250691144214
O           0.29042411147828    5.91325328224914    3.39158942866039
C           0.68519502468097    6.05579331909123    0.36668878226170
C          -0.75346477790296    6.21379616669761    0.62339857748445
N          -1.48973861312517    6.23425182960555   -0.44835612936910
C          -0.62437379841883    6.08733377083926   -1.48976891604203
C           0.76292040514982    5.98864494885572   -1.01419028192612
C           1.64069554819469    5.78006276954934   -2.13730768322357
S           3.27189774744057    5.53667581787133   -2.08597828779409
C           0.77674089201354    5.76683644794477   -3.29263843542672
C          -0.61418493053447    5.95879640366377   -2.85497316470032
N          -1.47024410337442    5.90839698938001   -3.91347481226999
C          -0.72232404040992    5.65960760336509   -4.94863122431328
C           0.70815864080927    5.54160116335228   -4.65570225750373
C           1.72289928570989    5.26919447970037   -5.63431140675731
C           3.03613135906963    5.63161192393801   -5.39605544248086
C           4.03220042711720    5.34387256001848   -6.34040176114069
C           5.41004540954515    5.56564423455156   -6.32333969277629
C           6.25815913740808    6.16246356103357   -5.25966981838944
C           5.67673725873515    7.45497072495744   -4.65520865376564
N           6.77032560041329    8.34948477244570   -4.31968885087955
C           6.52578641265183    5.11728717873136   -4.15255032303521
N           7.26916540092115    3.99820763904677   -4.70297129007520
C           5.93164573599137    5.00573486056078   -7.54703759978931
C           7.19887835364733    4.88806264663473   -7.98883935059952
C           7.50606861870710    4.24525869582766   -9.29499385060747
C           6.31553888984987    3.71164297710416  -10.02507039069884
C           5.05543449477898    3.82866015714600   -9.56199637672139
C           4.81054107695332    4.45868204912841   -8.31970163070560
C           3.66234795513998    4.66774436507092   -7.57564462546501
C           2.31053957527828    4.32981405692653   -7.80486540284944
C           1.37528139277587    4.62246130596292   -6.86370001428773
C           8.19808167152687    5.26533242689953  -10.16770205753604
C           9.48215056883812    5.17635594127363  -10.52638962786370
C          10.17249231801391    6.11734007140657  -11.35379029495646
C           9.63150932402479    7.28781283337514  -12.05282519329437
N          10.51096012499171    7.95901376337167  -12.73913676762263
C          11.69544595989039    7.30453582854847  -12.55500643018079
C          11.50556535222909    6.13547590724577  -11.68468773036082
C          12.76073960030650    5.45322410317952  -11.48849861669948
S          12.99232772569909    4.09589437733687  -10.58558903583484
C          13.71063079275159    6.22111477046774  -12.24945428473315
C          13.02030548054161    7.35521919529368  -12.89758657078864
N          13.89561407522306    8.10306904817272  -13.62789817310567
C          15.05255635534696    7.53020754840356  -13.48268813693633
C          15.03600462336625    6.33273199084805  -12.62697222166227
C          16.17315472940378    5.54630092806163  -12.31786063909317
C          16.26324465416838    4.44294283295749  -11.52901046801005
C          17.63799682578328    3.96722352578544  -11.50013252079263
C          18.41648176259748    4.75441450421409  -12.25870675549920
C          17.56948108949036    5.82339610721460  -12.84690098884218
O          17.91620196798856    6.71225910734761  -13.58173452640894
H           2.82266897513146    5.83460843736545    4.58771108949668
H           4.71253174608827    5.92144386206809    2.71966663183828
H           3.59211700912879    6.06076163135345    0.33979168634451
H          -1.19209641397481    6.31448824900595    1.59963007465028
H          -1.16531389655295    5.59897963132082   -5.92736466756392
H           3.28966997430384    6.14003864083389   -4.48256807729679
H           7.22545315389936    6.42578002540457   -5.69652604679704
H           5.04188273131873    7.20686420140915   -3.79027780961308
H           5.05895234497812    7.96039381995837   -5.40249021690837
H           7.33250466968262    7.95909232380478   -3.57108241517844
H           6.41730448615216    9.24695070201402   -4.00831264441567
H           5.56437467430022    4.83037649110021   -3.70057706817779
H           7.14489859046742    5.57699370765589   -3.37836378091108
H           6.67664469271712    3.45134624863730   -5.31916061550656
H           7.59591069136017    3.38927958625749   -3.96179915695625
H           8.03950988537065    5.26006068979976   -7.42138298968482
H           8.21832975030053    3.42728627804514   -9.11561955741613
H           6.52106080986746    3.23443584472833  -10.97118429811982
H           4.22295145916349    3.42941551658432  -10.12295758434998
H           2.03382496461033    3.83039006440817   -8.72165417166792
H           0.34626769818210    4.34086030608283   -7.02449160754403
H           7.57595837448081    6.08803417538582  -10.48798587343999
H          10.08650197669239    4.34752656787208  -10.17819625728305
H           8.60366418441754    7.60491093498235  -12.03778890251285
H          15.93104403115764    7.92389279201049  -13.96183711602268
H          15.45760408093552    3.97252850449634  -10.99487935292932
H          17.94515905772793    3.10335934424947  -10.93753964607738
H          19.46997323748286    4.67511483293872  -12.44618389981375
