108
 SCF done       -165.987278789766          0.000226339966
C          11.23616537351701    0.17057660905433  -10.20219920670492
C          11.37266737541357    1.44338394388385   -9.87450797770898
C          12.66381230016134    2.18922178747160  -10.01047749297914
C          10.24235999571246    2.28798066422448   -9.32146797186970
N           8.97248870594380    1.61745830897738   -9.20880823232415
C           8.64651227797869    0.77157876310140   -8.21252274124625
C           9.42830943569717    0.46389000904223   -7.14277888942418
C           9.06848988946910   -0.41087972746984   -6.09499515606144
N          10.03144231829870   -0.97996721137241   -5.36933729137411
C           9.42037314030672   -1.85462126783883   -4.56061592756882
C           7.95977806032418   -1.84691190842051   -4.76302251436875
C           7.31290538150186   -2.81965577504375   -3.86849222119205
O           6.13605199954294   -3.11707151269047   -3.79918072928525
C           8.44668879211116   -3.36075010705083   -3.10656199933055
C           9.71067081611874   -2.75960808879361   -3.56256442658997
N          10.75518299605958   -3.24148655159207   -2.85043964517943
C          10.22274614518471   -4.08185891985842   -1.98920155987122
C           8.79097534573915   -4.19768135586089   -2.08768529443581
C           7.71233413396132   -0.87709208005586   -5.70007866204500
C           6.47054954278972   -0.32347637176229   -6.13352218801550
C           5.28054147075702   -0.93512509493610   -5.95014634904387
C           3.99824820458986   -0.41423876092971   -6.35107541579766
C           3.78824982270593    0.91190072656851   -6.66056054873185
C           2.51495447153913    1.35318731879562   -7.06558026838156
C           2.05731622916945    2.61524079196114   -7.42102770802134
C           2.85291206808893    3.87714914767234   -7.42713912792412
C           3.03189355863910    4.41670430275286   -8.85585706841983
N           3.77948429792516    3.45686896826557   -9.65060892367740
C           2.24601693043363    4.93474597825109   -6.48325885868346
N           3.28002127206611    5.86013337089157   -6.05203135116353
C           0.66432354570200    2.47199512406657   -7.76549325118037
C          -0.25249858460897    3.35776393006528   -8.19835830710936
C          -1.66760771404224    2.95782952507342   -8.45971662965844
C          -1.94554654953591    1.49993690059809   -8.30539892432700
C          -1.01428094701188    0.61998621744191   -7.89262651958174
C           0.29894984127368    1.05457158118494   -7.59664668101146
C           1.42776586657219    0.38907421077885   -7.16533728584179
C           1.66309432770196   -0.96283543685503   -6.81988853872454
C           2.90222868124872   -1.33974256849180   -6.41872367846805
C          -2.48452349261443    3.81047461256171   -7.52161778829417
C          -3.00418045169218    3.36824953007391   -6.37010147870524
C          -3.74509353951709    4.22647471174879   -5.49460111807220
N          -3.64090324297085    5.54474112965403   -5.57752882904911
C          -4.35960135421593    6.03901713921836   -4.54817234380688
C          -4.95852398285381    4.95734077216856   -3.75501857922446
C          -5.73873348043342    5.50192778505297   -2.63473607965722
O          -6.36240501591470    4.90465631016931   -1.78421937126611
C          -5.56900908132650    6.95906938992667   -2.80998628065046
C          -4.72136682698660    7.23999109434635   -3.98577690826003
N          -4.57631695906391    8.57641020375414   -4.16385410797802
C          -5.27165949289658    9.12628038775493   -3.19622707101155
C          -5.92218735960496    8.17634905601564   -2.32063036562430
C          -4.60863888231646    3.78533569450211   -4.37490999861967
C          -5.02202073040331    2.46451178999085   -4.02532825061739
C          -5.07737243519596    1.40777003753979   -4.86272671208639
C          -5.52983779648601    0.11220255224707   -4.45565253065497
C          -5.57638695136676   -0.97154235277109   -5.24911229930453
C          -5.12839002883578   -0.97732343052424   -6.67919818950931
C          -6.10591493802689   -2.28301423631075   -4.73502307616734
N          -5.16373295301536   -3.34748045814097   -4.99474062232621
C          -5.57933084844142   -4.65182631586332   -5.12784865100837
C          -4.81286435527165   -5.71985559783011   -4.93848559980940
H          12.06317554987432   -0.39902482251531  -10.58750211421175
H          10.30920993167667   -0.36488906415150  -10.08927304310325
H          13.43563688809447    1.54984739992983  -10.42774143856253
H          12.99715987747461    2.54711853190727   -9.03714910719673
H          12.53885334106872    3.05661159693991  -10.65787009720413
H          10.10420132768182    3.15945990845439   -9.97043387091964
H          10.52706868895148    2.65906068669335   -8.33176125388352
H           8.42219706045288    1.57208717016533  -10.05209026052633
H           7.67219658479924    0.31572235759081   -8.32373230731162
H          10.45611685322694    0.79178112233318   -7.10978232224161
H          10.85002140655430   -4.61312017892909   -1.29416469467373
H           8.16850929819722   -4.81993766776372   -1.47510691548513
H           6.51684046690178    0.64892026095211   -6.60443602533620
H           5.27226569873507   -1.91612086731695   -5.49378849158961
H           4.59187499496100    1.62730530593080   -6.57359262357069
H           3.84915842102360    3.65634474843799   -7.03104879906733
H           3.52115753079793    5.40525672519664   -8.80500974869159
H           2.05737755544051    4.54487016774080   -9.33298430171449
H           4.70321769675413    3.32193337093212   -9.25305427873478
H           3.89260335894600    3.79369449680816  -10.60021177379250
H           1.86979005068178    4.42589563905266   -5.59198970399085
H           1.39322194571482    5.43150044156185   -6.97158304936552
H           3.56694549091059    6.46101303566419   -6.81737298992167
H           2.93565079609498    6.45523780250039   -5.30758994460414
H          -0.02810680468366    4.40506754576185   -8.33606241738572
H          -1.92841248136231    3.26031317040747   -9.48513038904410
H          -2.95291475333730    1.18698027198287   -8.53711850644953
H          -1.25164607824550   -0.42963991542507   -7.79182099322085
H           0.85393915432213   -1.67648000621753   -6.87310349182327
H           3.09929827171716   -2.36521772984441   -6.14298545605548
H          -2.62966596478329    4.84547123188239   -7.79600784061378
H          -2.86702426185929    2.34266614531638   -6.06054809236203
H          -5.31991570606558   10.19775471059882   -3.10455125716309
H          -6.53729866445593    8.42383105228392   -1.47806548121010
H          -5.37864013199301    2.35522784333693   -3.00844897787366
H          -4.80917425312670    1.52955381307392   -5.90128353947208
H          -5.85797939987593    0.02603507993395   -3.42752453197328
H          -4.13485818431757   -0.54458248738992   -6.78182851577223
H          -5.81585865208835   -0.39765834623770   -7.29584525130235
H          -5.10154182761338   -1.99721009558782   -7.05363568830594
H          -7.03075408288290   -2.52443752358843   -5.27280742787177
H          -6.35290829851459   -2.19600018488514   -3.66557817846540
H          -4.27127634127916   -3.23519402174332   -4.53362762889395
H          -6.60048659168904   -4.75324703007230   -5.47260379861678
H          -3.79557262637583   -5.63430337894540   -4.59687554265930
H          -5.17901975615890   -6.70911355934240   -5.13481602243589
