98
 SCF done       -188.414868524703          0.000294140817
C           0.46190436128387   -2.92506167237109   -0.12157981530853
S           0.11399374876624   -3.17435635030147    1.52990958063471
C          -1.38146219825209   -3.97748126052974    1.15566358237348
C          -1.56806745079675   -4.03876756180510   -0.22553664349463
C          -0.51590599536766   -3.42788062415751   -0.93945097996782
O          -0.41408108892760   -3.31335286594045   -2.28872982474040
C          -1.32120525999728   -3.78587772970757   -3.16514289807460
O          -1.13547699725142   -3.61596159851774   -4.33465623109177
C          -2.57161025212858   -4.53021228684995   -2.69574510928742
O          -3.34503034451854   -4.95452387482461   -3.50774492362220
S          -2.93890374384606   -4.81003096636767   -0.96069058823556
C          -2.29909392967645   -4.59257104182137    2.04082968381029
N          -3.31681992761870   -5.21893236568743    1.44958282314163
C          -3.98144816765151   -5.87582845338380    2.41664310255119
C          -3.33415059869273   -5.66505651420684    3.71052941890809
C          -4.04107919565365   -6.39614469781334    4.77679135125482
O          -3.77088710543912   -6.45353466074394    5.95558374221526
C          -5.14823686882595   -7.03479461180032    4.03818625959227
C          -5.07370464679558   -6.69191870118053    2.60157149582218
N          -6.09615429894648   -7.25840902903196    1.91988164370950
C          -6.78997290913658   -7.91099670032492    2.82232622821177
C          -6.25841307000658   -7.80673997691322    4.16614751706861
C          -2.28496092018293   -4.80436245286914    3.50196554263305
C          -1.41795890506623   -4.28886957400325    4.51430667662330
C          -0.80375493902995   -3.09178058912843    4.47071518581524
C           0.10526646383164   -2.55494903988976    5.45026099618392
C           0.84354286528443   -1.44158283525298    5.10252484985665
C           1.80761378979433   -0.91803504523645    5.98396929698817
C           2.70878683134671    0.13776312575690    5.85454182662127
C           2.93237067779321    0.99360153433191    4.65243143735101
C           3.42926145460283    0.13162051875951    3.47148619079045
N           3.46596057688244    0.90976407251130    2.24790156224411
C           1.68142026165867    1.79961366762079    4.25953198828756
N           1.60911193171489    3.02220438925939    5.05817991435153
C           3.45759580043274    0.19930904217777    7.08957128931428
C           4.41870047023730    1.04678685763139    7.51284160866067
C           5.04867268639738    0.89087373711992    8.85262866343186
C           4.59485009521759   -0.30627703515398    9.63381161737146
C           3.59313197692740   -1.10542611495501    9.21595051480746
C           2.98751904087261   -0.88828021815010    7.95970104578358
C           1.97954593400974   -1.55158696152568    7.28222052705350
C           1.18294414991052   -2.66459004565683    7.63065811657906
C           0.28403339460856   -3.15395380761514    6.73761513451908
C           4.74338586839544    2.02410134917611    9.79647532023975
C           3.77340263619202    2.92547314266732    9.59603530004568
C           3.45424317529526    3.96336578476151   10.52535849261223
N           3.80997572014234    3.94350291315187   11.79885769170833
C           3.29524705785041    5.06678896735013   12.34238700209121
C           2.57188542645852    5.86682105447916   11.33900055687484
C           2.02576083810854    7.09211908060845   11.94133247753332
O           1.38151444315445    7.96873658868323   11.40525867268787
C           2.45878308161339    6.97598993110924   13.34516747560141
C           3.22773084505018    5.72780017602167   13.54518097831418
N           3.63713503888054    5.62077797114201   14.83214884192149
C           3.18400191568596    6.69827692186006   15.42697529794657
C           2.44342592799672    7.58812516801259   14.55760210125891
C           2.67919362142610    5.17607825638683   10.16244540711803
C           2.30003869486424    5.47189869545892    8.82720756254348
C           1.63963045432677    6.56988394029108    8.39715033381428
C           1.39650042198542    6.79099113756942    7.00657280164117
S           0.26512148767794    7.98484363786288    6.45132538651633
C           0.53014828330347    7.57442806314552    4.80941388760624
C           1.45540740092128    6.57731865562922    4.67592548157659
C           1.95739828026997    6.13602668591630    5.91735357020060
O           2.94058157659698    5.20855015531493    6.08267115187271
C           3.47988644972146    4.45411421921648    5.11216618469031
O           4.37528504277670    3.70476258855344    5.42083442770415
C           3.12984761847304    4.63401789643538    3.65172466400213
O           3.64949269274345    3.95811665151877    2.80678192593960
S           1.96683204043454    5.87836609654298    3.14158550859413
H           1.35386580019943   -2.41579315895614   -0.42568230010312
H          -7.66792223484292   -8.46356399465424    2.53636705280926
H          -6.67998764483545   -8.26126860612659    5.04074898038663
H          -1.34091713849106   -4.92136496004774    5.38817331866934
H          -0.98348294684740   -2.44891649169200    3.61925555854978
H           0.69677108941550   -0.99741567351104    4.12910168788375
H           3.71811823910016    1.72130319826852    4.86702311102076
H           2.75073245803512   -0.71061515829201    3.30532771846796
H           4.40868008887554   -0.28540874276728    3.76219093154691
H           3.94286488001585    0.39261068102244    1.51795631394169
H           3.97083619365550    1.77950727378942    2.39324063392481
H           0.77640006455558    1.19237185355076    4.38077705922885
H           1.77460558351605    2.08470570519144    3.20966278981194
H           1.59380430439999    2.78708484220478    6.04673468449117
H           0.76003374006215    3.53492832418502    4.83884916959540
H           4.75723417667150    1.87698656180865    6.90625521609282
H           6.13892313234223    0.85238378652152    8.71354140051780
H           5.08104913934425   -0.46801066755879   10.58274960165199
H           3.26692753918575   -1.93932523692259    9.81995841083685
H           1.30054032179350   -3.11896586084406    8.60304837800909
H          -0.32658997342545   -4.00220882095604    7.00215768856239
H           5.31837242503480    2.06172265022530   10.71028325821440
H           3.21059086397382    2.90419199181452    8.67357710593513
H           3.37367648503673    6.86006354855500   16.47394818012793
H           1.99660329325605    8.51757538346244   14.85050771934296
H           2.62097249736725    4.74963115888980    8.09563104044486
H           1.26775364202304    7.30677321800644    9.09596594529442
H           0.00260024169812    8.07977179092150    4.02707744621079
