136
 SCF done       -198.267568149669          0.000349941839
C           1.08571211749336    0.61185653358853    1.20337158193818
S           0.81983496383286   -0.91719613968212    1.93624579179880
C           0.01132255644599   -1.52391688353952    0.52010380143207
C          -0.03195833181060   -0.55934828037207   -0.46434974592947
C           0.59270262157658    0.66811151817228   -0.06432953394779
O           0.66346596765838    1.73498829685371   -0.91374902943867
C           1.29199407613312    2.89188499928690   -0.42055889262591
O          -0.61243818917131   -0.81500505943339   -1.67085289257614
C          -1.14788164405248    0.26609969818476   -2.40413897269471
C          -0.49967237219973   -2.87892453864449    0.50635953957320
C          -0.81683098634036   -3.51771752274325   -0.69945272494052
C          -1.31612847327297   -4.79714970974147   -0.66944009489100
C          -1.50594829126383   -5.47339495196570    0.54591567447212
C          -1.17859887408094   -4.85420193851093    1.74242214025071
C          -0.67931882472917   -3.56719104204242    1.71152822314463
C          -2.04690263155847   -6.78877313572576    0.26188336625925
C          -2.18008993384955   -6.92328403968912   -1.12934228633731
C          -1.72984654216613   -5.66563587752789   -1.83423015979601
C          -0.54703291838694   -5.94130512958063   -2.77996110333178
C           0.64085582462302   -6.57679259830681   -2.06776848116010
C          -2.88297786830805   -5.02239972762762   -2.62642373166832
C          -4.09796996749537   -4.71937206417916   -1.75808724372191
C          -2.66973904443788   -8.08433299815857   -1.67786336797456
C          -3.05396496393255   -9.13379342738761   -0.83770551213505
C          -2.92641164747969   -8.98633145252231    0.54380731833636
C          -2.42057100032462   -7.82606721839122    1.10141416017861
C          -3.59799043980175  -10.36871459007314   -1.41511653241093
C          -4.69615845976403  -10.97488811589370   -0.87229871021448
C          -5.23356619952076  -12.13909721235627   -1.47174842098264
C          -6.33532760696571  -12.90872045309361   -1.14586563581976
C          -7.25394915294070  -12.69431849963585    0.01372074936997
C          -8.69167903784005  -12.39364390822728   -0.44355095868749
N          -9.39620017934334  -11.67516595078995    0.60337979869746
C          -7.19068226713401  -13.88795183874062    0.98228244207036
N          -7.87736645217420  -13.58588772974684    2.23137143289321
C          -6.41807810170303  -13.95996327777259   -2.13383188826080
C          -7.30539810506284  -14.95301219112595   -2.32661042889409
C          -7.16517057199672  -15.93630296090010   -3.43701234204896
C          -5.99449472179933  -15.69980647318520   -4.33729988591482
C          -5.12303083597946  -14.69255957763730   -4.14603285065382
C          -5.29141613402517  -13.79266431205112   -3.06812166272246
C          -4.58494820113453  -12.68119134836391   -2.65892435464923
C          -3.43488431321896  -12.04290358417556   -3.17896951533014
C          -2.96745172364559  -10.92093501349536   -2.57693039599724
C          -7.05641027403494  -17.31621828055041   -2.83050909981152
C          -7.89247409140645  -18.31402879926400   -3.10593303664907
C          -7.83839831403417  -19.66446298515200   -2.56727841317003
C          -8.58266699269160  -20.66457941038735   -3.20690805454821
C          -8.55672041773942  -21.95317686785021   -2.72834007424386
C          -7.83157780382321  -22.25684237357115   -1.56336631694409
C          -7.09459225035398  -21.27498470969637   -0.91916924549732
C          -7.09364987549051  -19.99220988381116   -1.43147990902346
C          -8.06641312153478  -23.64465531369321   -1.22067213213572
C          -8.93124897358258  -24.19847595089773   -2.17624778872564
C          -9.25309643761316  -23.18697541716857   -3.25662895348378
C          -8.59411123827929  -23.70135584366129   -4.55815577459900
C          -8.63707537482700  -22.74947180653849   -5.74636483028252
C         -10.76413342642359  -22.98086439566245   -3.42908330928373
C         -11.44684373795439  -22.59498240483131   -2.12186833234707
C          -9.35135551295289  -25.50329147523515   -2.08006822450283
C          -8.90695779274870  -26.28828108611872   -1.00811937309895
C          -8.04757505080745  -25.72316819980206   -0.05835666274113
C          -7.62384582368262  -24.41336756525378   -0.15455904485699
C          -9.32795525635636  -27.66626526484773   -0.86421028009744
S          -9.12225751112725  -28.47524697190927    0.66293345560288
C          -9.80956227440876  -29.92522128646738    0.05627700982911
C         -10.18928973777054  -29.81058121289971   -1.24616103170976
C          -9.91085428617198  -28.51118416728540   -1.78575055676020
O         -10.17431798803521  -28.08724035294330   -3.05350754528185
C         -10.27351249219522  -29.04834956182228   -4.08298197099936
O         -10.78406775625131  -30.77961292405924   -2.00223614483084
C         -11.00754762712557  -32.01870096616064   -1.37602822220606
H           1.60209926786846    1.36735850889958    1.75829156172094
H           1.24244267228227    3.62308533044394   -1.22566010924904
H           2.33888239770681    2.69800927939412   -0.16588295208229
H           0.77319813686529    3.28204426088376    0.46098794867485
H          -1.74008487699354   -0.18971552095450   -3.19727174855141
H          -0.36243401548369    0.88571003489249   -2.84160548537310
H          -1.79372186634171    0.89035996380002   -1.78136624181782
H          -0.66117114732609   -3.00314757345978   -1.63217047653147
H          -1.31249304543663   -5.36427923229718    2.68483647585883
H          -0.42401149653792   -3.07010974053229    2.63674841540917
H          -0.23531307480687   -4.99791862862327   -3.23326651553095
H          -0.88618617194715   -6.60212772728066   -3.58111155340633
H           1.00674638138391   -5.92398191638692   -1.27843128627217
H           1.45060529637046   -6.75387083520699   -2.77240205810558
H           0.35708620780531   -7.52747001314899   -1.62143941482964
H          -3.17406908127494   -5.69825265747096   -3.43382509306395
H          -2.52017496457006   -4.09616618986460   -3.07722661833210
H          -4.48784473134150   -5.63162706039076   -1.31186031291208
H          -4.88428957756407   -4.26587582438010   -2.35773908189638
H          -3.83337547384072   -4.03160148253463   -0.95803072187569
H          -2.78781850334129   -8.18447540117990   -2.74733808881255
H          -3.21074276849827   -9.80811166830704    1.18529843326803
H          -2.31960060600550   -7.73286429403732    2.17282360639961
H          -5.18180476172880  -10.54426106849999   -0.00856429614041
H          -6.91673064813268  -11.80697688987887    0.55882833663914
H          -9.18770074886021  -13.33402396257433   -0.73563466471573
H          -8.65406491477107  -11.74836899808845   -1.32816306296415
H          -9.37694765661776  -12.23880621107691    1.44942949885815
H         -10.36449158046871  -11.52711834583635    0.33908334283194
H          -6.12901150662116  -14.15189816043089    1.13100779888751
H          -7.68590254347459  -14.75593967681048    0.53915197682641
H          -7.41436796405023  -12.81216159442144    2.69867576664302
H          -7.84250637901765  -14.38751050512690    2.85272358952643
H          -8.15399142729056  -15.10506930052970   -1.67461894056117
H          -8.08619866709781  -15.90930071354003   -4.03794724801757
H          -5.87840324654000  -16.40064565479164   -5.15040938826251
H          -4.28737237449097  -14.55285453640103   -4.81737417522172
H          -2.94488327735900  -12.45337140620287   -4.05035682957734
H          -2.08327948394836  -10.42796231910415   -2.95481629908973
H          -6.21955079996729  -17.44296475170844   -2.15973496349563
H          -8.69433637019454  -18.14145518999517   -3.81562284501323
H          -9.17747264478171  -20.40402651479376   -4.07053760717525
H          -6.53745973532266  -21.50559687410719   -0.02315386344784
H          -6.53085778128676  -19.22237768052719   -0.92593532503902
H          -9.08676837499750  -24.63789336657218   -4.82914225423827
H          -7.54942954225530  -23.93252791950418   -4.33336549731286
H          -9.65867117279744  -22.48634891078193   -6.00812428431760
H          -8.18185312791540  -23.23020499078719   -6.61000048908485
H          -8.08003093414421  -21.84089928087857   -5.53437747967422
H         -11.20360500688293  -23.90524729895031   -3.80959831149920
H         -10.93850743997581  -22.19602646146449   -4.16666069356569
H         -11.31731872428845  -23.37676835561369   -1.37693260734275
H         -12.51214344518049  -22.44485607873810   -2.28339012654201
H         -11.02394241062321  -21.67346429612378   -1.72732113765501
H         -10.02615232867901  -25.92583364189052   -2.80445928991015
H          -7.71121786419462  -26.33419714885313    0.76714915784701
H          -6.96095649792711  -23.99829668461899    0.58994639368361
H          -9.89768923003235  -30.76788879599357    0.71012766963896
H         -10.27014116506308  -28.47684516930941   -5.01088547558262
H         -11.19829415041031  -29.62402863601177   -4.00969676782748
H          -9.42179137424937  -29.73289828100334   -4.07447229752057
H         -11.47637579471045  -32.65093870552779   -2.12804049361228
H         -11.67678682045818  -31.91487360388352   -0.51605712349099
H         -10.06777072154308  -32.47456842578571   -1.04835317948571
