114
 SCF done       -186.520051219879          0.001676130402
C          -3.42164959340105   -0.04473183700413   -4.27845777996209
S          -3.60623891948481   -1.67828429949354   -3.78791671742261
C          -4.76267776334277   -1.97696299003957   -5.05588681579225
C          -4.94281751543108   -0.85291497247778   -5.83611126538221
C          -4.17921109219590    0.26515139971089   -5.36982555442027
O          -4.23506018377170    1.47478146008220   -5.99601186040048
C          -3.45129160693609    2.50727101167205   -5.44887328061830
O          -5.77856087030763   -0.91033078238069   -6.90489940265190
C          -6.27857144018163    0.29487299473376   -7.44368155945851
C          -5.30222442683066   -3.28670185673393   -5.28813343876173
C          -5.54533679550060   -3.84772713416283   -6.50479748170756
C          -5.89104686616633   -5.24197690573823   -6.30417786193182
C          -6.16398597084598   -6.15610633129141   -7.32306328674574
N          -6.34563133173054   -6.91963661079408   -8.16433427208713
C          -5.82461403229849   -5.53687339917869   -4.96758058572219
C          -5.48470062362878   -4.33018488360212   -4.26461069315563
C          -5.47751091261636   -4.16374003841337   -2.89788058783463
C          -5.29794845971704   -5.22007234579831   -1.87114730366760
C          -5.65166338726393   -4.67865472701870   -0.66526238877628
C          -6.01631753438355   -3.30282572430723   -0.87008388951080
C          -5.85986542487026   -2.98154571179008   -2.20096366849954
C          -6.46639649142587   -2.44066838907467    0.13677848221125
N          -6.83462732120891   -1.73720180756104    0.96707608434591
C          -4.72873810574428   -6.50698380504502   -2.07829305394992
C          -3.98292237840727   -6.84856579846066   -3.15520993547302
C          -3.57047608239959   -8.17361832662981   -3.52066127543685
C          -3.30749033912513   -8.41289717401283   -4.85744838185410
C          -3.04761784055498   -9.71604572876475   -5.30279332811983
C          -2.85900152293879  -10.22037990915108   -6.58799906151407
C          -3.00642943545779   -9.44814987304876   -7.85096637804189
C          -1.78194162536491   -9.56137892578408   -8.77747481633334
N          -1.70928959801314   -8.36862171946543   -9.59669632897625
C          -4.30539711092663   -9.86188794026700   -8.57726802199747
N          -4.58765159928588   -8.94985680265313   -9.67264723919126
C          -2.64459246849801  -11.64115431504292   -6.44792190841454
C          -2.45314052672156  -12.61960060626680   -7.35584931350656
C          -2.42067117463342  -14.04854353193921   -6.95550430494509
C          -2.29848819953300  -14.28094444399180   -5.48150508052152
C          -2.48706172119333  -13.29664538386879   -4.58053116135067
C          -2.70506686681553  -11.96933447707202   -5.01408943660814
C          -2.96474316510368  -10.79416067057521   -4.33165972795326
C          -3.18773507584328  -10.51576959849860   -2.96479676340546
C          -3.50398181618765   -9.25087272902898   -2.58245957663466
C          -3.75092869297754  -14.71074865009294   -7.28265757818230
C          -4.88145603086285  -14.01909212909618   -7.45099584799008
C          -6.19149135076184  -14.57000778330092   -7.64614218483181
C          -6.53406000773219  -15.82451340283605   -8.05864722295849
C          -7.96602552672284  -15.87289833993504   -8.23532314676352
C          -8.69282414498057  -16.99806093900397   -8.63225922510350
N          -9.30168590712308  -17.90783957151005   -8.98469880843924
C          -8.49294731017023  -14.62910452748444   -7.97608772728390
C          -7.42474973395966  -13.76450508470421   -7.58658525813817
C          -7.52956699434963  -12.44469830748422   -7.18587801156615
C          -8.60873047505660  -11.49369595449974   -7.56536506051978
C          -8.36889485328001  -10.31895785642860   -6.90241636667394
C          -7.19211955869240  -10.48298650323825   -6.09751334692324
C          -6.67093086307100  -11.74897638005107   -6.29534827009247
C          -6.68806894166734   -9.51500962528716   -5.22712571658036
N          -6.28782570164089   -8.72090465695453   -4.49790863669624
C          -9.60411306856448  -11.78035200521089   -8.53604689129980
C         -10.68537669598521  -11.00267317703926   -8.79884692849845
C         -11.73625688403535  -11.35994055197910   -9.68384535078771
S         -12.96492005694286  -10.18271120795658  -10.05308455045021
C         -13.81965823253961  -11.30229824965378  -11.03036791095189
C         -13.21332274675011  -12.52457843322070  -11.08291120367268
C         -12.01118177328789  -12.57291410953219  -10.30974029089627
O         -11.18054060669538  -13.62647872779194  -10.13161530515329
C         -11.58046607359168  -14.91665302426433  -10.55304850766528
O         -13.65616330576673  -13.61040045054590  -11.77660527320720
C         -14.87201765150679  -13.47127912758260  -12.47083125046756
H          -2.75250880410430    0.58396919088344   -3.72858983233361
H          -3.63651034157620    3.38109987478022   -6.07074285079848
H          -2.38663019117595    2.25583233710235   -5.47791108193060
H          -3.74288221049363    2.72402955129238   -4.41657699625502
H          -7.03629669628637   -0.00681372409328   -8.16539381128674
H          -5.49568932685958    0.86455856001805   -7.94854271267367
H          -6.73611604772593    0.91982988897192   -6.67311560675389
H          -5.47057171731797   -3.36591900308035   -7.45949182809162
H          -6.08583993533247   -6.47496007350878   -4.51737693619327
H          -5.62536071405868   -5.16294197306084    0.29318201954433
H          -6.13656824341912   -2.05059720072347   -2.65676478670570
H          -4.91837733614629   -7.23061928423498   -1.29644985357266
H          -3.73724872962860   -6.08066106092464   -3.87613442379641
H          -3.35842026432567   -7.60030935276919   -5.56741285683506
H          -3.10226621937514   -8.38766359793107   -7.60020929191941
H          -1.85000685465193  -10.49096152224519   -9.36685654597400
H          -0.87073449941730   -9.61479808008832   -8.17063623048039
H          -2.58968466445465   -8.27100622155291  -10.09764512681075
H          -0.95471219604598   -8.44000007735527  -10.27046615123720
H          -5.11765211536816   -9.89759752295050   -7.83179770965345
H          -4.18686269786089  -10.86822305276063   -8.99146358937535
H          -4.91040481754704   -8.06095465995078   -9.29388565502857
H          -5.34897829665715   -9.31469564151285  -10.23624071355319
H          -2.40074852447482  -12.41645723019806   -8.41547699400234
H          -1.62816047800768  -14.57598281777792   -7.50007379796991
H          -2.13481826700267  -15.30116257194449   -5.17004842176537
H          -2.45602924918905  -13.50401930365772   -3.52060421489262
H          -3.12050744120914  -11.31420885490825   -2.24004305584457
H          -3.68726080546803   -9.03520242990071   -1.54106113185121
H          -3.74679487030352  -15.79017682162369   -7.26245946724256
H          -4.83226722724229  -12.93997716709133   -7.45011853096809
H          -5.87570767915812  -16.64941362916969   -8.25601649563786
H          -9.53852159357963  -14.39257898782629   -7.94716167145294
H          -8.92369733426320   -9.40325204218045   -6.97179383932741
H          -5.84000774878034  -12.16223234763881   -5.75525804523317
H          -9.49144692488150  -12.69139166383639   -9.09859531784190
H         -10.80550774766402  -10.05098907025244   -8.29930047635499
H         -14.71846409883740  -10.98431632539833  -11.51753212234909
H         -10.80083663715444  -15.59249826696567  -10.20207485711962
H         -11.65620166431588  -14.97585301466924  -11.63955533537744
H         -12.53601029824562  -15.20267917690316  -10.10974797523928
H         -15.06361346287510  -14.44110835618022  -12.92609423035096
H         -14.79883873774686  -12.70817966778237  -13.25180488658299
H         -15.69122789102510  -13.21712316475599  -11.79144050257065
