132
 SCF done       -232.720679307104          0.000591560912
C           9.16723915891626   -6.36591830969010   14.54022605115091
S           8.82246264441446   -5.36542372204733   13.17625084767398
C           7.13983129697401   -5.54289938955977   13.47563574518772
C           6.87994836374585   -6.34095909411232   14.58124405005671
C           8.05134996693456   -6.81122319486104   15.18886413814300
C           5.39333002873608   -6.47482811901033   14.81273918328609
C           4.93792092313711   -7.93075668066327   14.67780222178918
C           4.98520059448142   -5.90404603915868   16.17360167180762
C           4.86251686909380   -5.62897839968124   13.67791063864900
C           5.91082726224774   -5.10510118274938   12.91906557396361
S           5.37195276450405   -4.14238518251358   11.61283245413943
C           3.70322735119950   -4.43517633411242   12.07869399090257
C           3.61818678752640   -5.24613848539869   13.20327755415677
C           2.61575777084618   -3.89215818760171   11.35725420721325
C           2.74682094353102   -3.10757003545625   10.26128218894795
C           1.69522689394746   -2.47720924581085    9.52602092756956
C           1.96625017888021   -1.26251903051631    8.86265953415360
C           3.24521419165795   -0.53824049002250    8.72674721722086
O           4.34807572147695   -0.82205237674729    9.12305765523713
N           2.95829008750601    0.62684741252363    7.99468064350912
C           1.60991460400512    0.71471963190608    7.65560584317139
O           1.08164084586604    1.60257990543632    7.03849891702537
C           0.98678454335273   -0.51151241248891    8.21560410419920
C          -0.33231148244885   -0.91922096363749    8.16040879188020
C          -0.60835862195075   -2.15383641132182    8.73536107207702
C           0.35698818945854   -2.93467432380915    9.37857188020254
C          -0.13307691230338   -4.27388669540340    9.73438798627547
O           0.46328467063866   -5.22418870695892   10.14827404565128
S          -1.90459193997525   -4.38130343917610    9.37399401326734
C          -1.96092238520779   -2.74077537754955    8.67112523820179
O          -2.94955166903160   -2.23840484640909    8.22653056591592
C           3.98367732354333    1.50926313027047    7.66189006813363
C           3.83237241785391    2.66634154613169    7.00889799172925
C           4.90486554240404    3.56193863299372    6.63104386039412
C           4.57595638232402    4.77254900074748    6.05919140679011
C           5.58406745542053    5.65720612769285    5.62710664821458
C           5.52422374808478    6.90236098051627    5.00743273392254
C           4.34727890033485    7.75114691990284    4.67846661961107
C           3.69478134703156    7.33556792343429    3.33908838788987
N           3.20588805009792    5.97312499579477    3.40447316721486
C           3.27337019855990    7.78268695635359    5.78077329944394
N           2.53235573883642    9.02946030837903    5.67579395464937
C           6.88661710264839    7.28406405643333    4.70767534338917
C           7.38413386496317    8.34570866587325    4.04449526150047
C           8.83866464187993    8.47737478667913    3.77715793294124
C           9.69299385483000    7.43261818731463    4.42529669784013
C           9.17807835769112    6.37835437021057    5.08663966584703
C           7.77863636553358    6.24108959902291    5.22472186476195
C           6.97601313420447    5.25774910949614    5.77783700330447
C           7.28607908741336    4.02458794000376    6.38949131587528
C           6.28095317417871    3.20987742133794    6.80579374660326
C           9.40752814242365    9.84993618482953    4.00859437900205
C           8.74456355513401   10.90611759361600    4.46905630187290
C           9.35412255791113   12.21154626579602    4.66161526748758
C           9.03547988304021   12.97249975326838    5.78904474180066
C           8.04071358164593   12.70093719971972    6.85114973550301
O           7.28403745712873   11.76432293604479    6.95366800191269
N           8.12792008171368   13.77915559422057    7.73290138650195
C           9.09647279646200   14.71339253802451    7.33746702092876
O           9.36532010119830   15.72021502662574    7.94084743286015
C           9.66141120455664   14.19147272545099    6.07846006671462
C          10.62713221465984   14.73061244041766    5.25276142445355
C          10.89997333869219   14.02377817554514    4.08653564221600
C          10.27757736992151   12.80644435097113    3.77518360715522
C          10.59357018561212   12.31956461229917    2.42368187067731
O          10.13060004754713   11.39280514453554    1.82100829989644
S          11.81673232704694   13.40924400216441    1.67160571179028
C          11.84517811929525   14.52296458651116    3.07799666392655
O          12.53230608967989   15.49956751718128    3.13504204362215
C           7.37172756364775   14.00966166561956    8.87779730033953
C           6.37078348560786   13.23913838385737    9.32768383695242
C           5.61035038074012   13.53689717785679   10.49841694406883
S           4.27942898324596   12.47679009465883   10.92212547656710
C           3.91976473188732   13.45090515794881   12.28547288212382
C           4.78605479637000   14.53360652786843   12.40709347705620
C           5.73970028748480   14.58088165536442   11.39603284149740
C           4.43610518881978   15.36624008815613   13.61890533865341
C           5.58460893321197   15.38463689990825   14.63128335932318
C           4.04427182919618   16.79149333660430   13.22027138582778
C           3.24901438865877   14.59514476655299   14.14869694355592
C           2.98221602017443   13.48966636940403   13.34800128200824
S           1.63984306071103   12.58445438175185   13.91149796695776
C           1.42755209280778   13.70201930554112   15.24423006891886
C           2.36795378253547   14.71193152421049   15.22092932932184
C           0.35722577041926   13.46675246252782   16.17118129858768
C           0.07527655936965   14.21843516187348   17.23430226823371
H          10.19175099486143   -6.56739666106058   14.78315112938128
H           8.08592790286761   -7.44398757385088   16.05710056024497
H           5.39024502043951   -8.53765386263957   15.45817272197112
H           5.23217598168213   -8.32993924370065   13.70992367793715
H           3.85627943124942   -7.99312902912658   14.76593293419350
H           5.44263469845925   -6.48130998087008   16.97329224102275
H           3.90460039477574   -5.94360608896761   16.28595104748230
H           5.30788381022377   -4.86908744573344   16.26157244045447
H           2.67461858482565   -5.53600280742043   13.62936294940023
H           1.64162446085120   -4.12472395578439   11.76146890515612
H           3.74657249535280   -2.83170719509920    9.95140045709890
H          -1.10194825312824   -0.33834497527033    7.67912508186037
H           4.93800492905103    1.13761848699225    8.00891973359344
H           2.84117596893775    2.98167721547984    6.71824719415346
H           3.54084584999438    5.03285679749132    5.90975732246637
H           4.70013048811608    8.77940793743708    4.54496541491378
H           4.42541190129604    7.49959614045430    2.52856192503717
H           2.84074505755667    7.99694638894869    3.17913146708753
H           3.97656076508282    5.31390096991951    3.39913531243847
H           2.60377994328181    5.76773242536450    2.61677752816969
H           3.75374138699255    7.64192804807590    6.76246579269590
H           2.57032900840723    6.96624494665406    5.61304876426201
H           3.10837508136479    9.80983766837144    5.97544499167602
H           1.71175447678358    9.00601112738192    6.26997970217277
H           6.74378354359333    9.11009322487349    3.62759761868349
H           8.95146616717591    8.33270696657845    2.68403183940947
H          10.75946149836870    7.55305748302260    4.31179803868536
H           9.82604836370380    5.63001191734464    5.51914378887617
H           8.31963475152117    3.73544700292521    6.51143343064139
H           6.52214798728337    2.26318116892659    7.26171737824879
H          10.45753707875014    9.93063724822409    3.76453778934484
H           7.72425686218589   10.82227323495352    4.81387069497783
H          11.12670593400024   15.66006031417232    5.47345333406987
H           7.67699124875279   14.91877813229377    9.37628070774908
H           6.09617698205169   12.34299343770304    8.79228008357520
H           6.49873721644755   15.33611657053576   11.30904595245621
H           6.45417447854962   15.87536652768171   14.20105883355227
H           5.85872215064023   14.36944649244753   14.90925651456060
H           5.28467806660159   15.92257123973363   15.52725849627360
H           4.89338039840343   17.30033003092009   12.77063094838371
H           3.72324670614558   17.34991040145016   14.09618275540786
H           3.22864087180975   16.77136857146861   12.50104314838294
H           2.40155777519510   15.49494491472223   15.95589109130576
H          -0.24885134247047   12.59615689405052   15.95547519160338
H           0.65058255930166   15.09115342246388   17.48972117428863
H          -0.74501291567185   13.97697293144976   17.88641437376239
