98
 SCF done       -161.558403352085          0.000619783493
C          12.67879106506572    4.69961104402904    9.37704050736520
O          13.42505056799206    4.01681585476812   10.25038777891386
C          14.61864234158224    3.79355528896565    9.67003863534478
C          14.65322832582972    4.32724489092456    8.42425871133494
C          13.37522352773644    4.93270863592601    8.21162091329400
C          12.96130517826899    5.62352769170006    7.02629370400908
C          11.75086828555752    6.19275967953612    6.83600179066498
C          11.39355251097179    6.87864664867779    5.64448473069401
C          10.18142600195699    7.46005137728243    5.45999253655943
C           9.78661145526457    8.17249175196645    4.30154635732738
C          10.56443263740735    8.42009328598962    3.08022253431253
N           9.95059020376010    9.13550028733838    2.18414229556710
C           8.72525766703636    9.42050691322409    2.72120833834576
C           8.59083175489988    8.81478923447964    4.04783401831602
C           7.30981009965816    9.13832630288572    4.61362262206765
S           6.77586737084559    8.70436004722342    6.11185889274009
C           6.65934414893364    9.94419398131706    3.60513088208080
C           7.57060467150240   10.11042199209287    2.45804676894982
N           7.01445437624793   10.91622517201355    1.50879310790653
C           5.86409497706245   11.27777675543377    1.99713944245679
C           5.55273002017927   10.71381236948393    3.31317167349913
C           4.32513294857303   10.94622760977096    4.02355448823787
C           3.60091754942638   12.10131241753454    3.80203377715225
C           2.40881467967863   12.32719446787271    4.51098134820034
C           1.51838219308389   13.39791644653768    4.48243756095223
C           1.64833515251850   14.62120269527138    3.63912186291260
C           0.43257782205241   14.81032034974929    2.71801580464753
N           0.13126552086396   13.55761046637045    2.04697523696559
C           1.89956123886682   15.86934562733974    4.50473419559117
N           3.22019814064140   15.77007385277277    5.09726141912187
C           0.46885545457460   13.09130080776125    5.42421194708567
C          -0.63685572721268   13.76398556185995    5.80033233643046
C          -1.57411073361755   13.22659933132889    6.82228249413858
C          -1.22864576863750   11.86708799296203    7.34047990282557
C          -0.11367235023872   11.20967575995057    6.96859756623870
C           0.76567369623210   11.77736582448408    6.01888308093661
C           1.94702489430581   11.32760594541621    5.46100151935268
C           2.70281293419934   10.15027250600499    5.65728120681529
C           3.85342342472704    9.97148308609288    4.95975283884605
C          -1.60244456376375   14.15450221045117    8.01363718851054
C          -2.73196829099534   14.63581846155231    8.54214034696872
C          -2.81366924194068   15.45831988847981    9.70917422959832
C          -1.72873131155378   15.98357374884137   10.53817958861343
N          -2.12520360869876   16.68826853893873   11.56223585221070
C          -3.48804528721356   16.68900404836713   11.49795027733630
C          -3.94760154346053   15.93693681265112   10.32378132551275
C          -5.38896812991224   15.91031929596373   10.27890099224902
S          -6.32648150605052   15.14398083949253    9.16578068755327
C          -5.78938015108426   16.65226598132541   11.44565620062021
C          -4.60210408476324   17.11789472323754   12.17681548225081
N          -4.96622373318630   17.79634882533261   13.30266822496291
C          -6.26657251027223   17.74894769524636   13.33537642217568
C          -6.87304570581780   17.02727170890778   12.21468867642459
C          -8.25805655757124   16.83156871638751   11.96852039068830
O          -8.64701037639192   16.57396936685983   10.69876058248156
C          -9.97617531835700   16.44617397105130   10.69849004606117
C         -10.48605743575051   16.60669610441539   11.94885470511634
C          -9.37880854579654   16.85349879288861   12.80771608376335
C          -9.39565642853655   16.99853503326822   14.23265481503239
C         -10.50939947103434   17.15314355126453   14.97285800661613
C         -10.49312226899992   17.26709593266467   16.40490344385128
C         -11.59107845114985   17.42558914371490   17.14384995600520
H          11.68618433160540    4.96403358184052    9.68244090160786
H          15.34708822382581    3.25162994484221   10.23971881826191
H          15.46953124542563    4.30445481573677    7.73202671003205
H          13.70131123384362    5.67994047330447    6.23802761650000
H          11.00461898556965    6.14128343606220    7.61659581074305
H          12.14190229735355    6.93098828440657    4.86491166356277
H           9.44136726241988    7.39968043568553    6.24822621617037
H          11.55991476356688    8.05951389305904    2.88886370687982
H           5.20939332686420   11.90960719626231    1.42242987217911
H           3.96937092520573   12.85198856654485    3.11939605438049
H           2.53319693912921   14.50123591226091    3.00647877030527
H           0.64967503795380   15.64223289443657    2.02486655842350
H          -0.44852066665319   15.08795998408471    3.30095120616827
H           0.92884433091905   13.24955191902154    1.50041958998512
H          -0.65262538218991   13.67278336043128    1.41447480623189
H           1.08965576463141   15.97256518211020    5.24558018909946
H           1.88917104776594   16.75750684159868    3.86573855406986
H           3.27325802517877   14.95777947936984    5.70362113042987
H           3.43205873131564   16.59290688953915    5.64966300728735
H          -0.88768591284886   14.73729455373143    5.40384694668920
H          -2.58476141981437   13.20521451021831    6.39158120611364
H          -1.91400723817605   11.45230862729338    8.06352239607622
H           0.11415626260602   10.23534706704970    7.37586603336425
H           2.35935779752089    9.40318982821860    6.35697393206066
H           4.43753819524447    9.07600185502858    5.09459448019958
H          -0.63820913479635   14.36548052295593    8.45293575876346
H          -3.68651979833784   14.39731097633027    8.08891680725813
H          -0.67748676895151   15.84157980725100   10.35860477262416
H          -6.80587486291029   18.26281703659724   14.11094843485121
H         -10.44681483854559   16.24170868883366    9.75655283982459
H         -11.51614782644115   16.53938761729589   12.23034037817792
H          -8.43751564947111   16.95252718578138   14.73185499235235
H         -11.47805017941937   17.20543653559109   14.49563898858594
H          -9.52197814864748   17.21710531368199   16.88086181195610
H         -12.56946812604798   17.48057383938420   16.69480417375343
H         -11.54997250996742   17.50720959837658   18.21589651211247
