124
 SCF done       -219.403133242974          0.000469279209
C          -2.66887253393990  -12.33897939722241  -10.77005402225291
C          -4.14266226400046  -12.26685507406370  -10.54595035403565
O          -4.72726712625623  -12.33837992533120   -9.48759335322810
C          -4.73550844342494  -12.21875771306410  -11.89628141470422
C          -3.72730992411385  -12.40471222375682  -12.86002099039723
C          -2.44728717604709  -12.59078875086630  -12.18618888126923
C          -1.26406250842137  -12.92496753413099  -12.78649011124080
C          -1.12024931741892  -13.16814214085665  -14.16981879887414
N          -0.93727676491072  -13.38480462374534  -15.28150869705684
C          -0.04106477751195  -13.10715407529658  -12.10647878496058
N           0.98187988727332  -13.26556483179960  -11.61026707729793
C          -4.05528057243947  -12.35261969813615  -14.20825882762228
C          -5.37177945533875  -12.11721311386184  -14.56709069064630
C          -6.35792887955337  -11.94903286513249  -13.59956996239823
C          -6.05289876910643  -12.00541417336565  -12.24506072836367
Cl         -7.97708036749204  -11.65301656185171  -14.08804315206405
C          -1.74390292428198  -12.14860308555917   -9.79372536478668
C          -2.05682354062414  -11.68450048330158   -8.47832566846286
C          -1.53006683793544  -12.22326528032068   -7.33931813420259
C          -2.26592279942104  -11.71068825851452   -6.20774768575197
C          -2.03939385858126  -12.07506084191154   -4.87330881991083
N          -1.84667910453020  -12.36570836675607   -3.77983264687195
C          -3.21963406925701  -10.83314267075392   -6.65316764938349
C          -3.08242408521847  -10.69385625271604   -8.07547575754622
C          -3.66724602496212   -9.75244785757470   -8.88906670482315
C          -4.92361310929953   -9.01856724811717   -8.61729558438904
C          -5.49038583136948   -8.74688410943592   -9.83156720113943
C          -4.55226651890469   -9.08391203048410  -10.87349769045843
C          -3.43076215045473   -9.62911041622898  -10.30320372350653
C          -4.77115729425228   -8.91775814629939  -12.24634233409776
N          -4.95705536021726   -8.82882571934828  -13.37607505017577
C          -5.47124847151651   -8.58948365711613   -7.36880705129505
C          -4.72497981459145   -8.14656657371871   -6.33263525264541
C          -5.21279221906473   -7.62048074372355   -5.08531356084564
C          -6.53497894444557   -7.73349297051229   -4.68998369153071
C          -6.96302995414784   -7.18685384444410   -3.47017777184910
C          -8.21641829652581   -7.13731034747997   -2.84981530374715
C          -9.52128749174926   -7.72722550800235   -3.24450275480126
C          -9.80313664380895   -7.77203226864251   -4.75304791292741
N         -11.22454357591835   -7.99686555309730   -4.95624722334681
C          -9.63652768877652   -9.15773893870229   -2.65348130469433
N          -9.84339964974697   -9.09570323068571   -1.21992038882491
C          -8.03112891269645   -6.45456883618977   -1.59251400430601
C          -8.90590062664434   -6.15420742127300   -0.61123117968840
C          -8.46507733646549   -5.48178615295619    0.63543758797159
C          -7.02629513214932   -5.07546324363026    0.65587582192451
C          -6.16477658086992   -5.38126249823436   -0.33556085289640
C          -6.62186324900835   -6.07545840107977   -1.47671432172790
C          -5.98402323235611   -6.52074076739549   -2.62411356762238
C          -4.63877679758316   -6.43311186499746   -3.03538784246569
C          -4.27155106428719   -6.96798092482987   -4.22958515748296
C          -8.64744177702828   -6.42308586166657    1.80941831848880
C          -9.04169582153804   -6.00668209712672    3.01585985914636
C          -9.13067112909065   -6.83339766623874    4.18845586262529
C          -8.57111809424265   -8.05858547142424    4.39480057550232
C          -8.75703180113530   -8.42364809432600    5.78337856768373
C          -8.35807475763844   -9.64610623631420    6.33656631577591
N          -8.02792544536433  -10.65367825809782    6.77759779821750
C          -9.37824469177279   -7.39119684409705    6.44073240267448
C          -9.69074881985853   -6.38006513663183    5.47788340297131
C         -10.46676938887998   -5.26152914564629    5.69174076709408
C         -10.70051575484852   -4.56755028583005    6.97360345633761
C         -11.62676003356118   -3.57883762275004    6.73917174138294
C         -12.01526582711203   -3.63060935056801    5.35739921048669
C         -11.28760863082206   -4.61147038362292    4.72045124040362
C         -12.98236315024059   -2.81215888192680    4.75895996362552
N         -13.77358086219171   -2.15115697973359    4.25396947130076
C          -9.94065807345484   -4.76503205800948    8.15436199636092
C         -10.20726020271397   -4.18351481110579    9.35659650964757
C          -9.36495837289220   -4.36182955051159   10.47220383952566
C          -9.40827131536004   -3.71573067744172   11.67473948207923
C          -8.68339381442281   -4.29262504431844   12.83619253243037
O          -7.85868716736691   -5.17653457725359   12.81077748932833
C          -9.22659324188935   -3.58852895455502   14.01938271890002
C         -10.12179135063694   -2.58836811236200   13.59723736647275
C         -10.14516879667497   -2.55979703231597   12.13486650696125
C         -10.59591864455034   -1.50815333990908   11.37904596530048
C         -11.25668036728071   -0.38265032776831   11.91536372342812
N         -11.81436768946831    0.54874849941214   12.28821126501563
C         -10.37246217294913   -1.35058686774081    9.99542050322886
N         -10.19454213407311   -1.13237627070607    8.88222628921234
C         -10.77952851900183   -1.81635869141499   14.54327172867172
C         -10.52761011229687   -2.04723025197066   15.88692189885110
C          -9.62875908275488   -3.03061185252832   16.28595028113426
C          -8.96501491899719   -3.82035947885911   15.35365512647634
Cl         -9.33689592357223   -3.27517160494297   17.96572947546658
H          -3.30887619659112  -12.47688037961787  -14.97562243953993
H          -5.63974817207644  -12.05679029660756  -15.60997314983009
H          -6.80903219413677  -11.87201797426393  -11.48747331228734
H          -0.70556560980792  -12.39324615829364   -9.97953469872807
H          -0.76997827454078  -12.98017015274457   -7.27936118075569
H          -3.91854109195025  -10.30863267810073   -6.03336086449293
H          -6.43984455253911   -8.27475667386251  -10.00369090898472
H          -2.53001773337139   -9.89592394963507  -10.81857356539256
H          -6.54918523068966   -8.49918973969659   -7.34072407992033
H          -3.64834699607857   -8.12545388118713   -6.45326644800782
H          -7.23421975162277   -8.25881342159335   -5.31782240866105
H         -10.31889787306975   -7.13312733867750   -2.78556763450644
H          -9.28200930984622   -8.61887162234413   -5.20448309577442
H          -9.43266402788519   -6.84310912677400   -5.21760023262861
H         -11.42652210679537   -8.16705335405019   -5.93448830052148
H         -11.76054619977634   -7.18569753743214   -4.66616997955508
H          -8.70677320621830   -9.69695226983236   -2.84917386542232
H         -10.45523189251647   -9.65660053529129   -3.19046477400442
H         -10.81210822608001   -8.88209598068965   -1.00937157507495
H          -9.61267615176640   -9.97710496244183   -0.77893291460780
H          -9.94774527252411   -6.43030831978440   -0.66828901409184
H          -9.09430053220963   -4.59853743588161    0.81117582702594
H          -6.69835573930545   -4.55289937623459    1.54127746927789
H          -5.12616112427931   -5.09138809847946   -0.27342181969466
H          -3.91582010764418   -5.94566578127327   -2.39884640929014
H          -3.24445398812022   -6.90697973454193   -4.55873614869638
H          -8.38051384499718   -7.45098276907414    1.62020976117821
H          -9.28537936860530   -4.96165045424519    3.15662477986570
H          -8.04084965458163   -8.66439275869796    3.68501857130608
H          -9.70466297386924   -7.40541667687846    7.46276503768899
H         -11.97154830573395   -2.83552380741871    7.43225636148935
H         -11.42093435251273   -4.92502776168661    3.70258911585190
H          -9.05166185484050   -5.37617273995427    8.07074766535665
H         -11.09551726905813   -3.58122259377415    9.46912767119950
H          -8.61741616566294   -5.14684700945351   10.40732216711647
H         -11.48490511721552   -1.05279436574308   14.25825784862925
H         -11.03283164668213   -1.45737610713928   16.63548748514677
H          -8.26860181567077   -4.58725964026670   15.65361700219642
