105
 SCF done       -174.448383795094          0.000393241149
C          14.32825168813631    2.46533848931129   -7.57595691799347
S          13.04816091930553    2.66700892104937   -6.45732939996616
C          13.79842981100498    4.09998556200944   -5.78969850591304
C          14.97729119445096    4.38168476157213   -6.44438859643992
C          15.27694734675818    3.43419399169198   -7.46120364346280
C          16.50544434555110    3.51516125634133   -8.30902398350995
S          17.26190601120186    1.85775615324841   -8.56667572466956
C          17.51532895458417    4.49046492033647   -7.71852273028003
C          16.80986556676029    5.79664296419440   -7.37733593638029
C          15.83896969374319    5.59736161696114   -6.20648404256701
O          15.07310714514292    6.76128755921070   -5.98075952977618
C          13.14746745988293    4.75065362821607   -4.68257731503837
C          11.79895740396012    4.62831482720272   -4.47866654781312
C          11.08991758423304    5.18503413225892   -3.41130602131292
C          11.78003583386085    5.96796593689895   -2.38242669178354
C          13.11109367738054    6.19934734345748   -2.37417304989283
S          14.19177704257492    5.62478420009850   -3.57152189052487
C          10.76262125736929    6.37307985147887   -1.47989555341610
C           9.52349574594619    5.88408213469614   -1.90053927249188
C           8.49251096824296    6.25899936447430   -1.00765820653377
C           8.96293689956326    7.00042025870005    0.02878634247664
S          10.66928488691010    7.28000820712657   -0.02251912269744
C           9.71505281421071    5.13475654560216   -3.12030244032768
C           8.75220738274841    4.45900053010359   -3.90717252665986
C           7.41084179632306    4.43950263069452   -3.69494381418009
C           6.47353881878156    3.75242878203788   -4.50330213056218
S           4.76627625216413    3.89035567365667   -4.10553255626817
C           4.35866718537899    2.88203609237124   -5.43281554696412
C           5.48412656922567    2.45894204217685   -6.14102460107488
C           6.67155271060791    2.94802162055933   -5.61796842500137
C           5.08249995599923    1.57706850365649   -7.30135627347337
C           5.51304092042623    2.18369660278978   -8.63904561029734
C           5.64534045884960    0.16191311454877   -7.14226883515557
C           3.57857850294653    1.58640537069926   -7.14874457602667
C           3.20217917407763    2.35258457906182   -6.04336081977840
S           1.50267491667586    2.39282011168064   -5.82702340125865
C           1.28249038498831    1.37698082794262   -7.24585479864503
C           2.49853201863750    1.03969736448288   -7.82412408981854
C          -0.04005294704625    1.05628423756689   -7.62970954751430
C          -0.40253134827961    0.32676406913643   -8.71570600340129
C          -1.74913236907399    0.05201886109731   -9.09826810285750
C          -2.84871287289195    0.65771488920033   -8.54298256461935
C          -4.18047253968890    0.39066044032579   -8.85870926788545
C          -4.50958776513063   -0.51986460653881   -9.96808065873017
C          -3.59294039048808   -1.21279595865976  -10.67777014159854
S          -1.90390832585734   -1.14783032554818  -10.37915878978727
C          -5.92430691812738   -0.47104844607762  -10.08814501594611
C          -6.44627815401245    0.38630750661173   -9.11999389149094
C          -7.85531422487759    0.46614585075680   -9.18377459972176
C          -8.35566281538990   -0.31231805535510  -10.17801319705912
S          -7.14786266067388   -1.17551096785155  -11.07226002830246
C          -5.36977032172360    0.92055790063800   -8.32691295301751
C          -5.57827926928022    1.78825833353675   -7.22072032940567
C          -4.66626769291667    2.11189849227625   -6.27520549176026
C          -4.87305842124535    2.99128650497272   -5.17832285114381
S          -6.44608254687527    3.56732716826234   -4.69644598078454
C          -5.77002248496252    4.41573476646886   -3.36431675804885
C          -4.41690482088819    4.28092418908815   -3.28717592636442
C          -3.89325921573971    3.48197676681083   -4.33373171336619
C          -2.43451248101275    3.23869221346968   -4.50027897809968
S          -2.00836035473870    1.46750451389710   -4.13313304094437
C          -1.59586539588990    4.18683855502401   -3.64887730725092
C          -2.15706022428319    4.32309582356926   -2.23701205280075
C          -3.55754083750403    4.95241604564733   -2.24913866160933
O          -3.50783062141008    6.35200591813616   -2.45047273018297
H          14.31688775686681    1.63827105571325   -8.25753250118544
H          16.23727839757353    3.82026967184036   -9.32636370226673
H          17.48229078239034    1.60314571290123   -7.27873045729753
H          18.32091373227728    4.66195556429558   -8.43342113913760
H          17.95111111476368    4.06475476295631   -6.81096887775799
H          16.25077464469121    6.15023454950453   -8.24912466064374
H          17.53321736234805    6.56633238026147   -7.10658258303781
H          16.41398220031085    5.46373088956990   -5.28045762463701
H          14.52126837114086    6.92627362465309   -6.75453214244573
H          11.24963578654225    4.06091069851998   -5.21893020666900
H          13.59479950714534    6.77723995828159   -1.60241506782047
H           7.45336072229387    6.00299484045075   -1.10150429956724
H           8.40339072988879    7.41377218422836    0.84524583559831
H           9.14158993777971    3.91734935842690   -4.75832726224525
H           6.99377862437380    4.98781787326052   -2.86501066954716
H           7.64656142464288    2.73658858287656   -6.01725287789454
H           6.59765745945060    2.24024403292525   -8.69222090306273
H           5.10569345048208    3.18657979502451   -8.74692308945342
H           5.15243486691241    1.57060989334799   -9.46154319362532
H           6.73200857722937    0.18520509033265   -7.17391327596547
H           5.28336723308665   -0.47694096477881   -7.94431094291588
H           5.33321081661393   -0.26278621001770   -6.19075811890265
H           2.57193319370238    0.42087476672780   -8.69960441827133
H          -0.80225907372735    1.44281983897739   -6.96804688851978
H           0.36414925081367   -0.10593203008560   -9.34320593983877
H          -2.64380394370428    1.43353715822650   -7.82495473083217
H          -3.86375128010672   -1.87618189356604  -11.48413040530109
H          -8.46886220189103    1.06450526385744   -8.53454554367874
H          -9.38292736920980   -0.44493206434345  -10.45694080545547
H          -6.57545565727394    2.20394688488368   -7.13090518801928
H          -3.69148076256048    1.65308192707699   -6.28876568192213
H          -6.40933139345981    4.97512289631905   -2.71139350589328
H          -2.14192498503112    3.33256613850411   -5.55037684103372
H          -2.61667418787669    1.41005772174313   -2.95293967005203
H          -1.57745415261050    5.16621626326620   -4.13692128442236
H          -0.56827706547580    3.82063458611680   -3.61214772500169
H          -1.49971032056312    4.95194147424731   -1.63483602386534
H          -2.21158106213276    3.34065924830368   -1.76368258797397
H          -4.01896535267773    4.84407771624484   -1.26054063657910
H          -3.15352041338799    6.52464959994705   -3.33038099368867
