126
 SCF done       -191.327019659989          0.000619833621
C          10.61276349984985   -3.40521268960335    2.99854562096332
C          11.01242783337400   -2.22663393416687    3.55367822532889
C          12.10585935182799   -1.28729076171859    3.18774475815432
N          10.18617709374093   -1.97913827083160    4.61726738477834
C           9.26646344216443   -2.97135622694967    4.75442624449572
C           8.25910521211650   -2.92300065110229    5.84767141840817
C           9.50160116782116   -3.89751056047502    3.74565821771008
C           8.82718390783579   -5.11921344310466    3.42731776680047
C           7.75232536512521   -5.65568577182468    4.03806896345590
C           7.13390597231603   -6.87570778991895    3.63720331557285
S           7.72390152505498   -7.83299734327223    2.30690208878327
C           6.45035466179506   -9.00311738445149    2.51494187367819
C           5.63286895362680   -8.65035609100109    3.56670543318809
C           6.01797531144020   -7.46351670029461    4.19272768662084
C           6.33163669359071  -10.12619706874926    1.65125716719327
C           5.32206654605914  -11.06523846759538    1.61622155730752
C           5.48900372570550  -12.02575995787264    0.61868131298510
C           6.63343309255300  -11.84925191483887   -0.12992554723235
S           7.52045270658061  -10.45792276029963    0.42495729533223
C           7.08203407555922  -12.62657905844458   -1.23299574075892
S           8.65681228057298  -12.39917626139462   -1.93295929811747
C           8.35733708284693  -13.61833005206103   -3.14239619157232
C           7.09964737633999  -14.15879238619737   -2.97615687609578
C           6.38980195501108  -13.61075468554129   -1.90846272900592
C           9.35805550605607  -13.91257769105122   -4.11485644966402
C           9.13906850557111  -14.63828613893609   -5.23076080218753
C          10.10556393128015  -14.95051870251675   -6.25321793977892
C           9.65804896039185  -15.36046260565819   -7.48728960000322
C          10.57251849506907  -15.64016540421222   -8.52297449407327
C          10.37062685258381  -16.01751570061233   -9.83995879546876
C           9.05338049651618  -16.25425854574829  -10.50386531145318
C           8.86266534612725  -15.39212061032143  -11.76415731977086
N           7.45411854395025  -15.07873866490173  -11.93180195150978
C           8.86750371716660  -17.75168340893497  -10.80615584733209
N           8.69087329954647  -18.47265121578093   -9.55797071809464
C          11.67856801433825  -16.17473924703146  -10.43264341519665
C          12.06708323105328  -16.49269939316756  -11.68071306772184
C          13.50820986592600  -16.61638807986569  -12.05392023464216
C          14.46325639121277  -16.35226004832241  -10.93764698284829
C          14.06304447204317  -15.99093939031138   -9.70532382786859
C          12.68487923962768  -15.88317497657825   -9.39790877506609
C          12.00210517255346  -15.54324456825629   -8.25023263527051
C          12.43448417001222  -15.14535483278253   -6.96146939694288
C          11.51796570909306  -14.84769695516139   -6.00879522699693
C          13.66634486459103  -17.97895309434489  -12.68637138701795
C          14.21254362196261  -19.03408155214860  -12.07814892079837
C          14.30490436700995  -20.34424027279069  -12.65548921939713
S          15.14057080856247  -21.60716826742890  -11.79374382064796
C          14.79963264036668  -22.76018889858937  -13.05078058356279
C          14.08007744573529  -22.17261992267943  -14.06656777297828
C          13.80627943163917  -20.82111714838752  -13.84506928217740
C          15.23322384462197  -24.11041885895580  -12.96098232375483
C          16.00210576704306  -24.70848591728914  -11.98897799106357
C          16.23382716095797  -26.06632244916110  -12.21846407632114
C          15.64214884853346  -26.53751314837877  -13.37089407715626
S          14.78578875175987  -25.26254966850477  -14.18919569435200
C          15.65970699671206  -27.85771943067520  -13.89918626955466
S          14.75039510167998  -28.25915211203825  -15.32980197082046
C          15.27330979047165  -29.91858908145117  -15.26012723256771
C          16.10867086820521  -30.11385598462192  -14.18198000962102
C          16.32466295534541  -28.96433157069795  -13.41849065139508
C          14.84206443219229  -30.88876464903364  -16.21286282597712
C          13.97909266317521  -30.62113603247019  -17.21136874108243
C          13.51010023438103  -31.53329180792922  -18.21280347022897
C          14.14801968799344  -32.65429016690358  -18.71821692032354
C          15.45454918074483  -33.27917678843204  -18.38082854611241
N          13.37899556726540  -33.14502451591782  -19.72823922402316
C          12.26116856219618  -32.37972762109001  -19.90151561621935
C          11.24209511920343  -32.73558248104576  -20.92452697843484
C          12.29965647958744  -31.36471670115292  -18.97147083296089
C          11.27879272014839  -30.35337113363906  -18.78639394954011
C          10.95568847518526  -29.78232492263681  -17.63239172037561
H          11.04824284066288   -3.88832083690909    2.14649738781920
H          12.63911660246769   -1.66569916544313    2.32085413518056
H          12.81398275328952   -1.17495318506233    4.00970264537731
H          11.70703151015281   -0.30105134679460    2.94698784780286
H          10.25104154072580   -1.17215945018774    5.21657348929680
H           8.42095451495670   -2.04280836388065    6.46807141174862
H           8.33148584908323   -3.80747306387458    6.48018829883088
H           7.24802344264238   -2.87570630945349    5.44264182814278
H           9.24642127582553   -5.65597471043988    2.58379355722732
H           7.28565680207474   -5.16680729845465    4.87945210255368
H           4.78495729432057   -9.23682216992859    3.87169903835243
H           5.49488525066765   -7.03631909766338    5.03054174395380
H           4.48415079040557  -11.04850184886287    2.28933362707581
H           4.79804965504016  -12.83172141021706    0.44950720405727
H           6.70971781194364  -14.93927369576701   -3.60421002781131
H           5.39299671071591  -13.91096617590448   -1.63996533204535
H          10.32853307095972  -13.47363840166612   -3.92868650069004
H           8.13568047163791  -14.99369422646392   -5.42653456351936
H           8.59779022919442  -15.44981218241643   -7.67460080895618
H           8.26179882748036  -15.96725344748021   -9.80669441581850
H           9.29654128686836  -15.90644473338732  -12.63883306659799
H           9.39399880058204  -14.44477112359521  -11.63452557218127
H           6.91454275617633  -15.92936551021318  -12.05111898177224
H           7.31106740889900  -14.50009986071305  -12.75198903407588
H           9.72603695057672  -18.11194229816741  -11.39954627664355
H           7.95948454194977  -17.90181333426373  -11.39952775425735
H           9.48081025591768  -18.29329256016025   -8.94553919615711
H           8.64471574011597  -19.47193591031593   -9.72532505646061
H          11.35696138284592  -16.69474722207357  -12.47009039987099
H          13.70453814718201  -15.87586781501757  -12.84750770397918
H          15.51052424177663  -16.44723356786356  -11.18322463520398
H          14.78722644229024  -15.78591271100597   -8.92957123257918
H          13.49297593026852  -15.07969256127365   -6.75352337374278
H          11.84504767712473  -14.55109482526220   -5.02408798086149
H          13.24545874709935  -18.07623368731570  -13.67708626484947
H          14.62468132792228  -18.92511529041890  -11.08393736915652
H          13.76711968728386  -22.71841496539430  -14.93934400702979
H          13.25149734501721  -20.21421418491438  -14.53744928442015
H          16.38075183266496  -24.16718633061552  -11.13956130890589
H          16.81150718427719  -26.68984284832962  -11.56071541397741
H          16.54750594177797  -31.06971391228457  -13.95463606958007
H          16.94819807351577  -28.93858789427913  -12.54293599969465
H          15.22815777480094  -31.88620838508385  -16.06155973682500
H          13.58210316282289  -29.61557430531700  -17.28447859592793
H          15.36174876250017  -33.95096442872615  -17.52564898226412
H          16.18504425905255  -32.51189698970285  -18.13230803301911
H          15.82619098127237  -33.85708153918608  -19.22593037226548
H          13.60483125199082  -33.95925533288664  -20.27656000902045
H          11.72097030140568  -33.00016374131826  -21.86754036553773
H          10.57310000106430  -31.89751643031175  -21.09605838102811
H          10.64172591335167  -33.58650800612682  -20.59775838636065
H          10.73350273381064  -30.08068977370830  -19.68261553067994
H          11.43096412520944  -30.05340520001391  -16.70593400616161
H          10.18577664613909  -29.03218572359848  -17.57292133505864
