152
 SCF done       -226.518470005003          0.000754954481
C          -1.80247728755857   -6.39629183722533    5.51937903802938
C          -2.96718065293432   -5.65870540304018    5.69894295262209
O          -3.33509498210601   -4.86917599986921    4.65692186478134
C          -4.55235038236668   -4.15465362415350    4.73251183336201
C          -4.74026331543093   -3.42773443633502    3.41023373709544
C          -3.65953496837838   -5.78480553439366    6.89669528242848
C          -3.17327312064538   -6.59356407652016    7.91704900465646
C          -3.96858782939315   -6.73453658946211    9.18427242424348
C          -5.05037496966126   -7.80177994454580    9.01117854766528
C          -1.99305319248682   -7.31326190225845    7.73850723301735
O          -1.52168838762072   -8.07820132385905    8.79213857761135
C          -0.30161698712377   -7.63533911912474    9.36412312820729
C          -0.43819459791223   -6.31213817763917   10.11084036923014
C          -1.31847231556214   -7.25297556729333    6.50373148268066
C          -0.17774933700907   -8.07869074236565    6.14667598373582
C           0.09322672931357   -9.30213221241948    6.63599745364895
C           1.18363580262374  -10.12783979675611    6.20435015909859
C           1.88561456391343  -10.97854241407588    7.00525261082417
C           3.01739285464871  -11.48128243103879    6.26288561564090
C           3.97844390747414  -12.37444345426163    6.74488054029566
N           4.78916935145080  -13.09573427470892    7.12495915375915
C           3.01644844859003  -10.92566770500862    5.00603549799123
C           1.85161616881451  -10.10385256848263    4.88337862796981
C           1.36098191122117   -9.57054190096120    3.71202369390691
C           2.12707032252590   -9.33298672470142    2.46684962943195
C           1.22988475396411   -8.98392561347505    1.49473731485207
C          -0.09153003329265   -8.98287065054254    2.06887635221603
C          -0.00981340722739   -9.30202791858682    3.40386575782249
C          -1.26181248031202   -8.69313083979259    1.35697923278609
N          -2.21307159583318   -8.44811165982201    0.76170879550419
C           3.54813654782294   -9.35854672941872    2.39683788140170
C           4.27330837376718   -9.47752941122215    1.25961012721236
C           5.70180638692994   -9.61308916008172    1.20592101105911
C           6.50692379472121   -9.48347835012944    2.32467996407538
C           7.88188289412077   -9.73715492447522    2.23790057002565
C           8.86629825477869   -9.72634820719611    3.22899476173173
C           8.60797311167522   -9.36750588291192    4.65107565281123
C           8.22724406906811  -10.62262709392101    5.47505030411638
N           6.93133829933350  -11.12024063461030    5.05222703632467
C           9.75659418082247   -8.62366041271923    5.35002399567240
N          10.43111379013273   -7.71353760573158    4.43549389223043
C          10.09333217939450  -10.13852642336503    2.59264040254813
C          11.33949529539546  -10.32565279172940    3.07089093940638
C          12.46437126312303  -10.74346654090608    2.18472531020797
C          12.09246528662642  -10.95754567653952    0.75621863081907
C          10.84316915176408  -10.77268111435015    0.29149828596128
C           9.80970020190887  -10.36708176934041    1.16768613078106
C           8.46306558899023  -10.12503678774527    0.96590410608810
C           7.63401470374243  -10.20026284913765   -0.17568945944270
C           6.30473194290791   -9.94911934166650   -0.05079289088964
C          13.14345714907497  -11.94623144291901    2.80287347844248
C          12.96832459948968  -13.19890054590729    2.38276834867759
C          13.67015665975992  -14.34289381172941    2.92083939105351
C          14.19137845501054  -15.33182807395454    2.14766181718104
C          15.04800057824672  -16.16550428585849    2.97021921777900
C          15.78785125182955  -17.26125511731247    2.51359621230525
N          16.39921400886092  -18.16492090456961    2.15314706999854
C          15.03277989851424  -15.68897595348912    4.25143376544279
C          14.10199586572026  -14.59289055450772    4.31244364543336
C          13.59135565194414  -14.03697181755027    5.45865563273597
C          14.12758229703005  -14.18343223752999    6.82932505919267
C          13.52561184122981  -13.24501734947644    7.60414955219373
C          12.51434409405502  -12.56393671747029    6.81504996852918
C          12.53808998699523  -13.05737661389571    5.54063193532739
C          11.66101482568756  -11.56599831389458    7.29216517875163
N          10.97508529106975  -10.71876147014228    7.65726555146605
C          15.11217737619238  -15.14308514385681    7.27294683875192
C          16.14100767360909  -14.81631963707060    8.06830694660462
C          17.17604558132878  -15.69774010129019    8.57223470302197
C          17.51678426916588  -16.91947857697124    7.94543709496734
O          16.84657751055117  -17.24399943861134    6.80266385436000
C          17.30765371293508  -18.30065638004029    5.97715437334941
C          18.58320553906215  -17.94583598527089    5.22255560767711
C          18.49819504242256  -17.72132410819869    8.50548648225794
C          19.17500606210232  -17.35783746408905    9.66059516496354
C          20.24390658687983  -18.25659375996332   10.21443053974077
C          21.50974620465972  -18.21070376580066    9.35645635446347
C          18.86178422265007  -16.14691721800020   10.27379555525703
O          19.52284984841659  -15.78946674528681   11.43439619508040
C          20.50566488202401  -14.78123937636169   11.27575737442224
C          20.95891769423231  -14.33891594821923   12.65648880669714
C          17.87122580820870  -15.31991392053945    9.73461054805629
C          17.55410548305579  -14.05789699647845   10.42404772975473
C          17.21703401726957  -13.98889073712188   11.70156014392916
H          -1.29488359810380   -6.32260074864203    4.56978659303870
H          -4.51734013334643   -3.43372985523656    5.56203528997197
H          -5.38658622377269   -4.84887069852719    4.90490135019201
H          -3.91678578465914   -2.73831330613270    3.24575713917909
H          -5.67467869354233   -2.87390046716804    3.42074801171260
H          -4.75741462294526   -4.14582397119291    2.59513979071063
H          -4.57893358510224   -5.24636648017553    7.06669886301226
H          -4.43354668133261   -5.77943211311481    9.43782982076559
H          -3.30953833317692   -7.03282868819321    9.99877452994897
H          -5.71949914965817   -7.54006985687622    8.19422147041857
H          -5.63541343301055   -7.90046660560499    9.92274397124962
H          -4.59076234295389   -8.76081837940060    8.78581136223345
H           0.47255666607559   -7.54083536942132    8.59167248489667
H          -0.01402610260488   -8.43307649974653   10.05413097562643
H          -1.14824770949660   -6.40372054687147   10.92896322733914
H          -0.78432561992154   -5.53382475963734    9.43332881660131
H           0.52773205425308   -6.02270967388604   10.51584909076390
H           0.44569258857207   -7.67513552006702    5.35821147232076
H          -0.49528177192875   -9.69441090791957    7.45460134691785
H           1.68003865569674  -11.21445771770579    8.03270674687677
H           3.69456985352903  -11.18875351588658    4.21791581186807
H           1.44400332537900   -8.70974457466877    0.47899930783965
H          -0.83919312040145   -9.43522611230715    4.07058027772748
H           4.06123443522425   -9.30016580431757    3.34485608801504
H           3.75150679725375   -9.55938571683288    0.31500368020706
H           6.08760079769283   -9.22138076328598    3.28228741689995
H           7.72664847841203   -8.71752471896867    4.66124387218002
H           8.15266914778919  -10.33035129731407    6.52449318856626
H           9.03877242934136  -11.36197115139001    5.38853455916638
H           7.00868319902902  -11.59890483921454    4.16069894126663
H           6.56122553190548  -11.77817839615243    5.72928495871888
H          10.49423074874324   -9.33507845217819    5.72830335250189
H           9.33119850375943   -8.11584446835888    6.23078355983047
H           9.76687109689024   -7.04350759094065    4.06051428061181
H          11.14510367470105   -7.19283219391461    4.93347180418621
H          11.57936898478124  -10.18211918457539    4.11230767582810
H          13.20131518105666   -9.92363967320671    2.21815391432361
H          12.89450804834014  -11.26524229125964    0.10185133480484
H          10.61252519922384  -10.92925305090623   -0.75253430760240
H           8.06112097060655  -10.46390390889516   -1.13223537737772
H           5.65961796410622  -10.01415208208480   -0.91549045960685
H          13.78497964363321  -11.73591667320607    3.64754247697800
H          12.36065186056209  -13.39027073153243    1.50678980700264
H          14.06308434421892  -15.45963795139829    1.08859829224778
H          15.58991522844776  -16.08451243598552    5.07466885424767
H          13.69550981311854  -13.06663004668549    8.64943606119865
H          11.87049077828218  -12.79269805670891    4.74464136131126
H          14.95305560506765  -16.16678416854695    6.97626187670046
H          16.22442353911505  -13.78096870505774    8.37182473547497
H          16.49468290947803  -18.46037189677648    5.26279503412166
H          17.43332477837611  -19.22190716768044    6.55727701393481
H          18.42272326804822  -17.04893267240013    4.62926803577380
H          18.84524078728123  -18.76014729729694    4.55379246266959
H          19.40696544705175  -17.76467985336796    5.90901815325650
H          18.75478661202002  -18.66618743583377    8.05312471651932
H          19.87170623441982  -19.28317854478977   10.24743202068150
H          20.47857199445289  -17.94325758910101   11.23188655838386
H          21.30068584454688  -18.54251162017834    8.34173035794904
H          22.27524290970828  -18.85679274465470    9.77967287319943
H          21.90211689392188  -17.19706976777007    9.30786779810622
H          20.08886683313383  -13.92943257994854   10.72071252422604
H          21.35683917493830  -15.17966181982216   10.70202445693680
H          21.73449124703789  -13.58326432670457   12.56838975623588
H          21.34850096604232  -15.18964635913699   13.20868843890632
H          20.11583818558479  -13.92721390568970   13.20444179909413
H          17.62520577675467  -13.15310021229962    9.83045884955381
H          17.13527337171128  -14.87400029763532   12.30864829700575
H          17.01111827600111  -13.04793652565419   12.18414249095131
