126
 SCF done       -207.225106482600          0.000641354101
C          -0.91054314870725    5.09777978218933   13.76885320886116
C           0.21307614559367    5.57014621506962   13.23010204510595
C           0.35373364503555    5.92743202136115   11.84977098952426
O           1.54727550315801    6.40255704227976   11.41478808046398
C           1.45093679282668    6.67018054904535   10.08679437869054
C           0.16260006192771    6.35822904278153    9.66163912150959
C          -0.53928149073257    5.88457016429573   10.78814907635931
O          -1.82659683868686    5.47330664786585   10.81544817897869
O          -0.39217371682866    6.46074001645176    8.42382409067150
C           2.54933382179737    7.17997374343539    9.35371338541014
C           3.76904880604547    7.43972951466881    9.89775523497005
C           4.90570616898682    7.93466215065558    9.20972826971555
C           4.92951979039649    8.38853632293708    7.92562465681779
C           6.06577801656775    8.86902112922070    7.22827088386606
C           6.01731963279491    9.76590478505560    6.18925790017759
C           7.35204441368780   10.18157429472547    5.88185982386634
C           7.69141862234302   11.08120797349878    4.86472037934401
N           7.96083303370676   11.82515577669168    4.03192847611895
C           8.23565846930002    9.55225435204694    6.73891826221598
C           7.49576334726351    8.66316968559107    7.56350242718609
C           8.02362797254531    7.65491781946247    8.34685480307577
C           9.38418437677595    7.59449433068539    8.92141375943588
C           9.54155738744892    6.34298664101779    9.45993982429150
C           8.33496167756745    5.59348346080228    9.24435571318691
C           7.41126668955720    6.39356854346432    8.60799780072971
C           8.14747514311055    4.26030401003420    9.62569747460575
N           7.99994679797396    3.16655727922294    9.94517849757475
C          10.27377429417834    8.70282366172266    9.00510140936753
C          11.58129345618766    8.60606357805532    9.34657417002314
C          12.53649606043438    9.67410390397959    9.40437132278181
C          13.85951609909344    9.36169169069109    9.66912567952177
C          14.84343207843707   10.36104367576535    9.67460114405226
C          16.22095897054165   10.29062348807740    9.87265399552361
C          17.00084718283231    9.05228664371784   10.16183373671017
C          18.05370684873451    8.77940938246149    9.07515197325603
N          17.45433610909448    8.94594749755720    7.76234261853217
C          17.63839478040558    9.10538248799887   11.56130625483663
N          16.58723906031322    9.01948121391941   12.55877382122458
C          16.73241092533654   11.62982245234609    9.71790583466966
C          17.98333629720111   12.13022532346889    9.75830438522190
C          18.26681344580364   13.56715511424769    9.48467452239612
C          17.05433107020696   14.41218011315899    9.27344006614750
C          15.80720503203604   13.90531972211261    9.24869198621678
C          15.59513613900296   12.51944801408171    9.43706977688239
C          14.45560291895834   11.73765207832019    9.41342481753151
C          13.09586286380616   12.04073950528871    9.17776937417242
C          12.17582550420523   11.04230199075403    9.17182476859955
C          19.13772289900832   14.13840968521324   10.57929050244596
C          20.46091950134019   14.26042374936607   10.47654212179590
C          21.34405978564455   14.78553431548381   11.48994145698249
C          22.61217037546112   14.34057006004798   11.71196912621931
C          23.14005008681572   15.00336052432813   12.88547301475747
C          24.43218592462381   14.81577424964206   13.38607173163658
N          25.49393978061113   14.64667661575057   13.79161885144252
C          22.17547268855362   15.83282912006751   13.39607830226858
C          21.02892628789434   15.77101739150539   12.53430203602080
C          19.96051064970989   16.64346020043710   12.56534494487672
C          19.53382756301159   17.49534861228540   13.70371481006055
C          18.67772635146946   18.44381505856791   13.20085515131682
C          18.49281528735216   18.19769552485111   11.80139863729935
C          19.22661501026658   17.08919190037629   11.43099527483555
C          17.68852751366719   18.96492568304516   10.95011071347992
N          17.02215603335525   19.58745346637742   10.25165841322335
C          19.80762331269698   17.30682846115791   15.08023712501922
C          20.23315106635644   16.15723753643784   15.67563650560118
C          20.51017400700177   16.06244288636092   17.05623405859107
C          20.91922963872201   14.91365218760726   17.66097594823723
C          21.23977284694772   14.80590036174740   19.03119709151888
O          21.17498784716157   15.87318095413400   19.87047709531243
C          21.55432033815568   15.46895049934862   21.10959485543008
C          21.86694541785443   14.11503547027840   21.07150470108919
C          21.66737418047703   13.68715874697446   19.74600373404877
O          21.84590967739214   12.44594268952437   19.25132555032152
O          22.29032661900670   13.29242969130674   22.06977019168190
C          21.59153753012332   16.38233917108342   22.19988510177909
C          21.27058623990290   17.69048517924465   22.10879801893497
C          21.31897798523967   18.59689450752549   23.21755376312542
C          21.00652161622845   19.89049443871030   23.12709228917106
H          -0.96553708240552    4.84311919745619   14.81206595589820
H          -1.79696442867717    4.95725871245199   13.17674155492235
H           1.10646630923327    5.71324787959800   13.82204761675482
H          -2.18266257055356    5.55623624635594    9.92085136270695
H           0.26228548028662    6.79127882263098    7.79961357835801
H           2.37108392302037    7.35431346347730    8.30100862845183
H           3.89325009077434    7.22813220514148   10.95059834800743
H           5.82240122168097    7.96955840885093    9.78266173050920
H           3.99538676689110    8.49220149639782    7.38723265393291
H           5.13512006883027   10.14749015010015    5.70957711187300
H           9.30527557386445    9.60926008542239    6.67225409859255
H          10.39447878183720    5.96348988332242    9.98997979450437
H           6.44423600734944    6.08447410323246    8.26134372981711
H           9.84884767392452    9.66852794480631    8.77524244875779
H          11.98156983942209    7.62261734804095    9.55701828224100
H          14.13411666671278    8.33451743765920    9.86256228014554
H          16.30166713958419    8.21046785193686   10.17195212520769
H          18.47408189225141    7.77244321160298    9.24525225958050
H          18.87458720135163    9.49657741602456    9.15197436927981
H          16.65811900251970    8.32582839768877    7.65707651304127
H          18.12295798840911    8.71998303323813    7.03452611075861
H          18.25580746087347   10.01411537686075   11.65068854019182
H          18.29145516003153    8.23725721945483   11.69285027101617
H          15.95295171492530    9.80645996546961   12.46463686023595
H          16.97647975659864    9.03714343137747   13.49449612426290
H          18.84752730910419   11.51803495581986    9.97170840395794
H          18.86126253961867   13.58834894064658    8.55616363247707
H          17.22883349458271   15.46834634582723    9.13222912603622
H          14.95587768979250   14.54827739135322    9.07914591254401
H          12.80133669280831   13.06412522635159    8.99707937901931
H          11.13987274391223   11.28037071613249    8.98835716123316
H          18.61466456571959   14.43807112883063   11.47584808152538
H          20.96147596361141   13.88860627984254    9.58882133802882
H          23.14876044494930   13.60397786389188   11.14264122373757
H          22.29884614966627   16.51171440797845   14.21723838177131
H          18.17811933428671   19.21633043236834   13.75498099458111
H          19.33924647745492   16.71860386419234   10.43108882287469
H          19.57722286981568   18.15400429470519   15.71651969203599
H          20.36245200990668   15.26094235758827   15.08405391583582
H          20.41009427781009   16.95633042621867   17.65708852421647
H          21.03124616008921   14.00067861850807   17.09424172473849
H          22.16496412217460   11.87980577753788   19.96651000243961
H          22.37526921225054   13.79157233600566   22.88876876151922
H          21.90429372290604   15.97218914603923   23.15245094094725
H          20.96113919127690   18.08752482673508   21.15268705334393
H          21.62911554566686   18.18115657592423   24.16816272615349
H          20.69323562833611   20.32857363417422   22.19404476523822
H          21.05076791903900   20.54815133991885   23.97729757417063
