110
 SCF done       -198.562905541897          0.000583599307
C          -3.64118964741025  -12.28380371150640    7.10064545980841
S          -4.45957631797990  -11.46745591768270    5.83229613114739
C          -3.19346931385160  -10.28266732245850    5.69208599655708
C          -2.20223611383890  -10.53723212675129    6.62671618876751
C          -2.45174685083273  -11.68562554610055    7.40659165828631
O          -1.61214842418826  -12.20428659227804    8.34620174622255
C          -0.36673490659222  -11.75919913396811    8.58481732863046
O           0.31262687101715  -12.37623127989771    9.37422236807770
C           0.19354908305076  -10.51852020294804    7.96621836341586
O           1.26622916106058  -10.06815356719473    8.31640756569123
S          -0.76203969218627   -9.55584267370902    6.80784032838324
C          -3.05741885239124   -9.29387478861071    4.69002998614568
C          -3.80253461036993   -9.06736029820080    3.58274791147052
C          -3.31815696731435   -8.23934027890897    2.51792968945881
C          -1.98928697826626   -7.92697966578221    2.40082519824899
C          -1.39879167796910   -7.22786126037971    1.35412330201291
C          -2.20742610254510   -6.57726599150948    0.31643935081759
C          -3.54340222764535   -6.75781031583474    0.21495579952378
S          -4.47071130178391   -7.74364629979190    1.28104574742910
C          -1.27178961642627   -5.82794563445605   -0.44799993439746
C           0.01935160199999   -6.01203864040987    0.06473318909786
C           0.99072775275452   -5.30040564205884   -0.67363023672648
C           0.43178261991845   -4.60873559591900   -1.70022167343790
S          -1.28672806075740   -4.79241571250573   -1.82159157412745
C          -0.04335463414817   -6.91744528787699    1.17529380144920
C           1.00609820357100   -7.41493400120081    2.01257851001522
C           0.93026132710669   -8.65237177909069    2.55666031305489
C           1.65462703462859   -9.21752015636154    3.66425651565546
C           1.25250476905207  -10.46372336064710    4.11566170173361
C           1.78402569230731  -11.01380620181913    5.29242577217809
C           1.50344307660814  -12.19105024799754    5.99943724135856
C           0.62080021965379  -13.35251706025420    5.66027764422844
C          -0.60289203464366  -13.01536469912519    4.79740910877021
N          -1.68642331049719  -13.92958930871631    5.12178847214840
C           1.47001751229645  -14.45015373136391    4.98398692736944
N           0.70328490408072  -15.67989525036245    4.85667239489385
C           2.38816290878078  -12.21580423706598    7.13156112091404
C           2.55282503789923  -13.12851800268515    8.11128422647277
C           3.44932358944510  -12.87191362053607    9.26308213687489
C           4.25595796459563  -11.61458270804693    9.16715913295631
C           4.09902619325664  -10.72416905442732    8.17232020167049
C           3.14735967557684  -10.96070793301138    7.15158823859097
C           2.79270177315966  -10.25298562756232    6.00809307106665
C           3.21644882265400   -9.00299672757567    5.51358800696442
C           2.66097747479626   -8.50097888726950    4.37774157073937
C           4.34799504990163  -14.02813493381155    9.59974127234126
C           4.77182561677656  -14.90357713898578    8.68386807667128
C           5.67166149988597  -16.01039299217312    8.89754132730982
C           6.14465094421448  -16.42278240207576   10.11298288081272
C           7.03774848477856  -17.48160462904503   10.31419490230008
C           7.62667490913797  -18.18572176882805    9.16339622760696
C           7.27898567574134  -17.96688918902585    7.87603601448053
S           6.11323552136804  -16.80770776164518    7.39610587811905
C           8.57550716360885  -19.09018225889546    9.71101289863553
C           8.57837223322989  -18.97546295890108   11.09916750885085
C           9.50616909655899  -19.84892428192331   11.70733291110627
C          10.17150696177151  -20.58793289320886   10.78131130151370
S           9.70092299716186  -20.26233756704019    9.14631590189638
C           7.59862251446445  -17.99346200468413   11.49658537236460
C           7.34162907701729  -17.72282457432015   12.86348633331866
C           6.27667101673106  -17.07062442924556   13.39690412893008
C           6.06744722937790  -16.85208084190236   14.78382092313365
S           4.66221722528501  -15.98057794699652   15.31067772199633
C           5.07140041917392  -16.12548803528966   16.99576687340349
C           6.25656120331761  -16.82472033253388   17.12673299978125
C           6.81243641814289  -17.22888942467796   15.89771622508122
O           7.96526937332791  -17.94145268330097   15.73964332048371
C           8.76928742043133  -18.38630155563156   16.70863067432797
O           9.74138284712277  -19.02608076741150   16.40691625264291
C           8.48885542514361  -18.10273239190285   18.17493878533717
O           9.23522979202641  -18.48448743781720   19.03308182942614
S           7.04230419947649  -17.19900336643587   18.65774758805076
C           4.18000377588532  -15.53993665221856   17.95485481206032
C           4.30752069534186  -15.55180582463118   19.28082556382291
H          -4.05378448501640  -13.16813877090135    7.53795110111353
H          -2.15557397164545   -8.71267422728977    4.83662263816667
H          -4.75804975297580   -9.55566251607745    3.45277095505524
H          -1.32936427828432   -8.26068313498249    3.18535053873668
H          -4.13737029473526   -6.30523043464441   -0.56354418417469
H           2.04417342985678   -5.29816238957595   -0.45893434142289
H           0.92649404303334   -3.98427661204725   -2.41851267287477
H           1.83464420054769   -6.75157201951322    2.22180646306110
H           0.16739753238288   -9.31052333852984    2.15714892677124
H           0.49906385885150  -10.99865289723646    3.55915887456637
H           0.23272076834029  -13.77136165242331    6.59744224919789
H          -0.31811543148335  -13.05411313308445    3.73356164576943
H          -0.94937169642747  -12.00226533774543    5.01816899841038
H          -1.36264991403336  -14.87742722053674    4.94600394618575
H          -2.48081008140597  -13.75569342862171    4.51373681487980
H           2.40281404992377  -14.58088260788511    5.55856269847064
H           1.74522482751968  -14.11737086696866    3.97902644175215
H           0.53382072583508  -16.07787422123703    5.77543804053566
H           1.21875889136878  -16.36356248027808    4.31313313549247
H           2.00679310858461  -14.06069724943599    8.12848771589663
H           2.75290259489647  -12.73068439351192   10.10840554711920
H           4.97349476446649  -11.45056982233913    9.95694466663931
H           4.68142433071280   -9.81525544464667    8.14582679436830
H           3.96947299120268   -8.44870400162158    6.05380957249070
H           2.97107268433559   -7.53707162508898    4.00460711242516
H           4.68647745607498  -14.07723265357695   10.62401647101786
H           4.43679639599383  -14.78413853029790    7.66058682035283
H           5.81854759092090  -15.86210088287115   10.97459881759760
H           7.71272653773361  -18.51839080181129    7.05686622605189
H           9.68198760132630  -19.92807196404788   12.76488411948605
H          10.93099951719621  -21.32561248116601   10.95211175447778
H           8.07480123371626  -18.13533294608910   13.54077003526129
H           5.48338643384835  -16.69946465685816   12.76573043995558
H           3.32601477754165  -15.04883698230178   17.50570824002560
H           5.13160580426451  -16.02427549280882   19.78373327003587
H           3.57110334258134  -15.07782765547349   19.90505762103524
