94
 SCF done       -202.152568226271          0.000410375741
C          -4.84970323751716   -2.34009413952867    2.27613553936403
S          -4.75682413658603   -3.21167265799070    0.81939893495515
C          -3.09815190194749   -3.62940243203112    1.10617405250459
C          -2.64953293813039   -3.06585811271777    2.28822118455679
C          -3.66373688773171   -2.33402284917860    2.95692068795019
C          -3.52057187921837   -1.62195421897098    4.26913978325786
F          -4.72491637878434   -1.28814872907314    4.76476788748807
F          -2.92437060937465   -2.36869694726610    5.20472162842203
F          -2.83271717158258   -0.47575103914308    4.16976832202793
C          -1.23006973777200   -3.16910926300507    2.75516145539156
F          -0.36130763118472   -3.13354278095503    1.72884849155254
F          -0.87151291979545   -2.17869957590781    3.57199815266463
F          -0.98745490067779   -4.31841467726471    3.41417313057702
C          -2.40657541193604   -4.46226177817891    0.17055669134969
C          -1.35306865037107   -5.44103473013850    0.45915642638107
N          -0.89961571297495   -6.05246270934951   -0.59660180328673
C          -1.59060012026059   -5.54246860507093   -1.64865807325472
C          -2.60127845660117   -4.57957584632754   -1.18685409966732
C          -3.27816830181790   -3.98985690481915   -2.32117852021204
S          -4.40353538292126   -2.78913135414761   -2.30058597353026
C          -2.66172713018673   -4.60491970394424   -3.46116932207449
C          -1.61723483838458   -5.54767741182492   -3.02295747878999
N          -0.95052238888683   -6.05441977175830   -4.09299896009125
C          -1.45791173820653   -5.45640610996244   -5.13692852468485
C          -2.53245860049772   -4.51775838216304   -4.83271496709244
C          -3.26386428900070   -3.71971320875943   -5.77683742296145
C          -4.60063489506108   -3.44135839243638   -5.55210390343878
C          -5.30230728466611   -2.61219802718011   -6.44259006722959
C          -6.62635474776879   -2.16146794866229   -6.45129964124634
C          -7.75499352409548   -2.46809964444973   -5.53276428347515
C          -8.30940667228614   -3.89794215378988   -5.75460239203878
N          -7.30529420454858   -4.90801985635927   -5.49443393040311
C          -7.40380664629727   -2.26550189459704   -4.04641192427477
N          -6.88526786667188   -0.92750561807127   -3.84250954299059
C          -6.74581059754940   -1.26105949366289   -7.57665159965809
C          -7.78450320865413   -0.52222909952049   -8.01315615018098
C          -7.64406909502796    0.41043950336480   -9.16571097958174
C          -6.31348840499643    0.37627236192044   -9.83850967756957
C          -5.29147726205205   -0.38800166104922   -9.40563405160164
C          -5.45213007618737   -1.20402818815701   -8.26292593230113
C          -4.58706042023156   -2.03824443806701   -7.57351950800105
C          -3.23583949132145   -2.37534459214534   -7.79950918187308
C          -2.59857732788826   -3.20521711376489   -6.93074797380196
C          -8.75405060058202    0.19475090510238  -10.16629420869921
C         -10.00257607478306    0.64310079254606  -10.00534540854111
C         -11.04227062179350    0.47970909796429  -10.97672222435138
C         -12.46458044429660    0.63465349609828  -10.68111217190335
N         -13.25187922162979    0.49277844319146  -11.71175206481427
C         -12.42795021743675    0.25473158244745  -12.76442518787875
C         -11.01658727611036    0.20182915783112  -12.32715604954700
C         -10.15941010115782    0.03377947950236  -13.47176762531826
S          -8.51632854216139   -0.04929527325953  -13.52274445939844
C         -11.06376119142599    0.01500731177284  -14.59739689586344
C         -12.45548784397483    0.13275403401615  -14.13111402520716
N         -13.31257023777462    0.16285515808091  -15.18344574597245
C         -12.56723087499541    0.14132028488041  -16.25059310561753
C         -11.12913991659722    0.08056204649546  -15.97013667214697
C         -10.06756991837990    0.04380462642354  -16.93002135833178
S          -8.63875329522773   -0.88288185960536  -16.60461307084848
C          -7.97482131165631   -0.49797402827765  -18.12177594678787
C          -8.78527642113125    0.32584057942825  -18.85266779040888
C          -9.98666163916569    0.64904758181604  -18.17179426936947
C         -11.02582558953207    1.59660999909810  -18.68837801585236
F         -11.56597041494114    2.33354583499283  -17.70087809139390
F         -10.54640681722526    2.46855584187612  -19.57512886137912
F         -12.05105695378486    0.96100235401690  -19.28664693727506
C          -8.39765772636118    0.78952269100670  -20.22547949171490
F          -7.37356108266803    0.06208163971532  -20.70369644518808
F          -9.39051070642915    0.66939970963825  -21.11360656831385
F          -7.98781384359371    2.06530301686269  -20.25027692351319
H          -5.76231357287631   -1.86195771013521    2.57213428737353
H          -0.98829996721026   -5.70046386822112    1.43575906620539
H          -1.11502631554357   -5.70879426098696   -6.12556596004149
H          -5.10615849445716   -3.89366806877900   -4.71607694598705
H          -8.56896713777624   -1.77483931654055   -5.76402477061503
H          -8.72163049090530   -3.94775407566607   -6.77573962590386
H          -9.13087760571967   -4.04591781102054   -5.04967286568388
H          -6.66697661457693   -4.99324601610394   -6.27699433611438
H          -7.73011720697565   -5.81178749626552   -5.32991703801451
H          -6.72065027964571   -3.06175105868465   -3.72473520555480
H          -8.32321331603414   -2.35891359352404   -3.46180589671593
H          -5.97819773133853   -0.83433124393878   -4.28882225192498
H          -6.75836757818711   -0.74901568117864   -2.85306582716105
H          -8.75481205707553   -0.55358238417732   -7.53768389941440
H          -7.78656422314681    1.42199344787456   -8.74809981856340
H          -6.21337166187289    0.99972558448772  -10.71343623000739
H          -4.34180350039123   -0.38142144515561   -9.91932534500141
H          -2.71938890564988   -1.96479648157070   -8.65412094255520
H          -1.55983103875378   -3.45869101886830   -7.07901465623053
H          -8.48384144049746   -0.36134914329733  -11.05117294281528
H         -10.28821725365529    1.16569976920903   -9.09965283451924
H         -12.87267448059106    0.83116858390231   -9.70445478657421
H         -13.01594736995344    0.12441029647915  -17.22691918221156
H          -7.01848979716815   -0.88331131598783  -18.41537886106384
