84
 SCF done       -183.109197772753          0.000726154226
C           2.35028696938510    0.03021343378284    1.17251577388620
C           3.04486575592950   -0.34049783546571   -0.13997525914843
C           3.40767707995376   -1.80146597113877   -0.20660864218919
C           4.60011219541678   -2.28840646996502    0.31935034944541
C           5.50041420934676   -1.38441471595176    1.12171276238235
C           5.50557722318109   -1.77366967909365    2.60174278054634
C           4.95371939863501   -3.65255457718476    0.14302377355355
C           6.12661761277611   -4.40533461931719    0.54575002712781
C           7.32685825022899   -3.91894634013802    1.18313726736947
C           8.13516158299936   -4.65003733516001    1.97502825733390
C           9.31957646767085   -4.08636066164413    2.53926753902015
C           9.82797172902434   -2.83993930998594    2.47669176924239
S           9.97728694251664   -1.07801104800323    2.05929718102867
C          11.37722634985401   -1.48393751299841    3.06157459630181
C          11.05223243778617   -2.79916347424683    3.24318183889503
N          11.33370223516524   -4.01091641734226    3.79157108787685
C          10.34666944456549   -4.79206579017543    3.40726983850306
C          10.26579644563214   -6.15915864756855    3.77696263414615
C          11.19768541609820   -6.75831734818619    4.55700336259607
C          11.14005122498731   -8.12236306908065    4.95064877464385
S           9.84404493790753   -9.16917963386283    4.44794322275056
C          10.50265445761162  -10.49159661091741    5.29796089464581
C          11.66258793203389  -10.17081326786131    5.94499666710110
C          12.40732438215963  -11.18905979272834    6.75712024696449
F          11.77603029985915  -12.37580937162693    6.73324238812121
F          13.64429742254538  -11.41757183835884    6.29861024786615
F          12.51073009433334  -10.85000210929053    8.04828866613058
C          12.03529589163093   -8.81681035235776    5.75097501907264
C          13.24551774207577   -8.13671391213839    6.31295656819389
F          14.03602753496267   -7.64519711703156    5.33916807953480
F          12.91090878772288   -7.08404424168408    7.08430846744271
F          14.01486461630574   -8.92281785555111    7.06205936076973
C           6.02903906529185   -5.72301039684276    0.19420480985640
S           4.59879284584026   -6.14292017942862   -0.64701867381305
C           4.05278154437510   -4.49933329465898   -0.52413099772458
C           2.85415029130996   -4.01953948625436   -1.02259153547414
S           1.67996863802635   -4.92910991722230   -1.92482806209318
C           0.72426020875344   -3.51669692164151   -2.10033303988313
C           1.22542814151580   -2.40693558463445   -1.47938114070899
C           0.45657210121701   -1.18529635111790   -1.45178339708497
C          -0.23990303564840   -0.71918032818742   -2.51143146638717
C          -1.03314481955116    0.45641387814086   -2.42819983292489
N          -1.16576734034794    1.16045438157589   -1.33105828505960
C          -1.96510041071584    2.20772471933349   -1.66983147150548
C          -2.64140160022719    3.33224011634013   -1.31805147381022
S          -3.33215063879637    3.65989842131564   -2.93458057208352
C          -2.33668980529942    2.15613450756969   -3.07571378179400
C          -1.78166471153555    1.05960875774154   -3.61295558248761
C          -1.85644798313903    0.52358197608267   -4.94302945436639
S          -2.09084499254734   -1.17499621619066   -5.20937078634693
C          -2.16787453787794   -0.96018092268279   -6.89904085121129
C          -2.01550822158093    0.34615413605460   -7.26026992564372
C          -2.05670841525396    0.77185678558859   -8.69799397221326
F          -2.54431086140473   -0.21220946528700   -9.47334509842880
F          -2.83812242679669    1.83600247897574   -8.90436847906634
F          -0.84278829322272    1.06111711340606   -9.18820256905430
C          -1.82806057086796    1.20374192910908   -6.14201098977450
C          -1.60280309956375    2.68276597475549   -6.23668763660643
F          -0.78214258402411    3.13403450137379   -5.27265793889057
F          -1.04204720052982    3.04998379462578   -7.39160274698944
F          -2.74591817241794    3.37889806635103   -6.12034838861455
C           2.50168055573101   -2.67395600793923   -0.85531335152026
H           1.94779282856667    1.03846047969734    1.11098180854571
H           3.04615740797806   -0.01278165950561    2.00616768755255
H           1.53420366490873   -0.65710962631087    1.38445557517888
H           3.93237501750440    0.27987799474393   -0.27147223252061
H           2.38340456816657   -0.11174799995806   -0.97668603292107
H           5.16837360958124   -0.35265427204596    1.05169749528432
H           6.51330248547649   -1.40882126117003    0.72012528467198
H           4.50132914499047   -1.69665423547550    3.01258962193630
H           6.16052277452231   -1.10725747846773    3.15830299395361
H           5.85205228295739   -2.79340715358489    2.74535970987269
H           7.62161100856507   -2.90099613631416    0.98374674532596
H           7.89136746215819   -5.67112787615474    2.22837707643503
H          12.16856567005492   -0.83250352688558    3.37556368884273
H           9.42055366126901   -6.72983106894871    3.41616225636921
H          12.02971506424340   -6.16158889738380    4.90047699960772
H          10.01200628722936  -11.44443306146649    5.28691387179855
H           6.77380915467454   -6.48003996228612    0.34376739797379
H          -0.21883731126036   -3.58914134409738   -2.60670919846081
H           0.37836672225932   -0.63824306019926   -0.52460982133276
H          -0.17320327220592   -1.21700657477873   -3.46776728792789
H          -2.77751573901485    3.90044197890117   -0.41925423209517
H          -2.32299923359255   -1.79833823238157   -7.54869825756108
