95
 SCF done       -199.301913833097          0.000689305488
C          -4.10779822184180   -3.73578925882561   11.47106642118015
S          -3.73596777450412   -5.10309129201134   10.53900191511134
C          -5.03116559984730   -4.80820401773321    9.40850763126525
C          -5.74691066111347   -3.65817015459357    9.79395885745266
C          -5.20003141384748   -3.04988499649955   10.97276430905841
C          -5.80302903713019   -1.89918054873532   11.50972924240852
C          -6.90844317439714   -1.34302302618033   10.91644638547665
C          -7.53971418448557   -0.17278851162149   11.62055142899430
F          -7.05378577674138   -0.00310281249998   12.85967893781119
F          -7.33613486422195    1.00773427345366   10.99786024813602
F          -8.86801527222582   -0.30029254762546   11.77150724118069
C          -7.45401098846513   -1.92545584695577    9.72969341205813
O          -8.55470250809382   -1.51390790918478    9.05503243376518
C          -8.83141468170309   -0.14274515717085    8.82609496924418
C          -6.87688208678254   -3.07191004413686    9.21544986594925
C          -5.17834344955337   -5.69051204097108    8.31723666671912
C          -4.53259716642720   -6.91210657370599    8.19259407476605
C          -4.90479120847025   -7.52005875015534    6.97488059730814
C          -5.81733687688134   -6.56823103433427    6.33803213043809
C          -5.99018957787007   -5.48823970487285    7.11712229856728
F          -6.37799194887683   -6.76558597432748    5.13828019130959
C          -4.51416928843412   -8.74754300848268    6.46473501911925
C          -4.91066974549924   -9.35944265279406    5.25668259378128
C          -4.28026063172438  -10.59431013017848    5.14171055770624
C          -3.44043645998045  -10.78125508759866    6.32483351839387
C          -3.58678197626725   -9.69178581906280    7.09419685167468
F          -2.98666491482197   -9.46577702320962    8.26941699417761
C          -4.38253833303715  -11.54899232097041    4.11773740882587
C          -5.15956919941937  -11.40474747762562    2.99589666842534
C          -5.29552688700050  -12.33902101050225    1.96493716100944
S          -6.33358579505953  -11.98018166626801    0.59375779283848
C          -6.03293472494798  -13.49712635754597   -0.21749326419988
C          -5.14534400815949  -14.26498952545791    0.56457699645228
C          -4.74588845457097  -13.61028837662626    1.76756329171355
N          -3.90331208687233  -14.43364088058864    2.43664283122740
C          -3.75925102731283  -15.58312346947773    1.69994193754158
N          -2.92862839646866  -16.60822029907746    2.17869698030466
O          -2.37310371032796  -16.39861511084765    3.24790534094621
O          -2.81482720661647  -17.61671938090695    1.51170401558562
C          -4.50683031866068  -15.51945831589020    0.54069480946841
C          -6.63864891783492  -13.78385924406231   -1.44186145210130
C          -7.52698713723682  -12.96060522455333   -2.13272190921026
C          -7.92524249658006  -13.60275957971007   -3.32054022511477
C          -7.21471418181995  -14.88253359472300   -3.32303724619712
C          -6.45412799085593  -15.00402602297151   -2.22260556014911
F          -7.32502595395868  -15.78910035365934   -4.30178251213818
C          -8.80988065410720  -13.15304713786230   -4.29110931129236
C          -9.22869175921339  -13.81027360665517   -5.46593085965331
C         -10.14233973699180  -13.00700607144453   -6.13671648246025
C         -10.31448403180894  -11.77618514464216   -5.36305048883645
C          -9.52547271344299  -11.87212264735909   -4.28270688209923
F          -9.38306141566298  -10.95455931596598   -3.31801374269387
C         -10.84092824104992  -13.26069880236018   -7.33364486206998
C         -10.64284480801593  -14.36405314524616   -8.11527228927690
C         -11.31458862012951  -14.70930297107950   -9.30479974497190
S         -10.58613115952132  -15.93648737554789  -10.30174568159373
C         -11.78832055230546  -15.81207719689362  -11.49719551564901
C         -12.75830545959842  -14.88461507196820  -11.16708812843335
C         -12.50366181023258  -14.25293093179624   -9.90448198017190
C         -13.45734827932566  -13.34645237147590   -9.41165419763641
C         -14.56352823585646  -13.04821041988180  -10.15953062544524
C         -15.59256848213200  -12.08059877790063   -9.64797415632978
F         -15.27106300504999  -11.58278566686718   -8.44084039809719
F         -15.75005201091168  -11.01762761027987  -10.45295614437254
F         -16.80573498949832  -12.63785987107976   -9.50602622857218
C         -14.79910930853742  -13.64083718184543  -11.43929078391350
O         -15.93022102796020  -13.23834925770050  -12.05362489874123
C         -16.25363028052241  -13.79113141354170  -13.30800665301393
C         -13.90363858323115  -14.55746551433558  -11.92553505113654
H          -3.52518789026325   -3.49299760937249   12.33721928559915
H          -5.39500947418937   -1.47405769264344   12.41336209579681
H          -9.40577483194886   -0.11961925495165    7.89990931686056
H          -7.91626559784529    0.43747787689527    8.69452560347229
H          -9.43869035072805    0.29279439854964    9.62120379211465
H          -7.35182262154084   -3.50302901144066    8.35233893940110
H          -3.87107872427151   -7.34035135484941    8.92021967074197
H          -6.57250626432044   -4.62290741225939    6.87831783608304
H          -5.59349803112591   -8.92973831015895    4.55173745864036
H          -2.82879920138052  -11.64088682633130    6.51884893947306
H          -3.79993484172144  -12.45021153487949    4.24809812382422
H          -5.72757231625689  -10.49322862779337    2.87867369414367
H          -3.43350481173594  -14.29481568081428    3.31801996112575
H          -4.56088383270319  -16.29393427453771   -0.19529409331055
H          -7.85582507289910  -11.99447122608973   -1.80264820109430
H          -5.82696812024137  -15.83037401065247   -1.96050096052722
H          -8.89677307283482  -14.78234870118829   -5.77068619284090
H         -10.95830385650975  -10.96260119995208   -5.63475982135150
H         -11.54634706965753  -12.50292582395674   -7.63982652890614
H          -9.85083852058540  -15.04408810652001   -7.82990720387301
H         -11.73502692568410  -16.41671013360070  -12.38032689406461
H         -13.34279145560886  -12.90258555168940   -8.43754718620781
H         -17.19251069573635  -13.32386199048123  -13.59770854272464
H         -16.39046581953876  -14.87462038779540  -13.24121300869709
H         -15.48611022692090  -13.56224174708637  -14.05330719664208
H         -14.05110889169856  -15.05055044124222  -12.87184163883734
