120
 SCF done       -178.147924530094          0.000811624155
C          -5.71614886633917    0.71652286548020    4.46197843915076
S          -5.29067377288592   -0.93302578607061    4.36159436685785
C          -5.74210048902643   -1.03215858218276    2.69106797334701
C          -6.21548924691203    0.20377068925107    2.24051106710013
C          -6.19154288625698    1.21132330434596    3.26832497270050
C          -6.64535568881925    2.52078231012275    2.94818777573944
S          -6.64866170943971    3.83531988064377    4.13320214803633
C          -7.12030140908827    2.78409493378739    1.69340623959746
C          -7.15263917494318    1.78522517693186    0.70214897003322
C          -6.70435724099197    0.52236780049720    0.95654352148098
C          -5.62695467544953   -2.23826933842005    1.95001892471424
C          -5.21639089258269   -3.41763707664870    2.46165022630904
C          -5.10847015782549   -4.67007237786791    1.75679455371201
C          -4.86865853088789   -5.83882944804478    2.49969566472567
C          -4.80276296464394   -7.05289613736898    1.86394447989349
C          -4.95626992831856   -7.13853892717090    0.46950547116424
C          -5.16784863739237   -5.99027258807833   -0.28019540006517
C          -5.24435304716479   -4.77359947248182    0.36533071536000
C          -4.87007041128576   -8.52837925204509    0.07991114311328
C          -4.66697710558991   -9.30554224995522    1.23198576337935
C          -4.58820852061037   -8.42592730224877    2.45928303192962
C          -3.20886211488594   -8.53197674684973    3.13601324682842
C          -2.06085461796642   -8.19378934524065    2.19251724533567
C          -5.69055148949336   -8.77512877834065    3.47547158870411
C          -7.08931097317654   -8.70405570140445    2.87491132786482
C          -4.58638567383801  -10.67432089287557    1.15216511288254
C          -4.71249908948310  -11.30741324070888   -0.09470733251453
C          -4.89488559237909  -10.51460725219509   -1.23657832114423
C          -4.97520111453405   -9.13998353505593   -1.16082857147650
C          -4.69089737165022  -12.74625988841387   -0.21406274877555
N          -4.23747464713585  -13.56914382700281    0.79750438342149
C          -4.38040727853094  -14.86385014142477    0.40363666604815
C          -4.19972797662819  -16.19139264357090    0.79704903601425
C          -4.66842534307023  -16.97408916275036   -0.25806340869402
N          -5.11750204898693  -16.14806844328109   -1.27127079230314
C          -4.95355020907509  -14.85635044302754   -0.88513340943623
C          -5.14286125216179  -13.52814898259292   -1.27311766585629
C          -4.75128177999717  -18.38887515825464   -0.40637830402827
C          -4.38497624451045  -19.29780252919180    0.51948575402797
C          -4.48076330197367  -20.73316000808231    0.39997282820353
C          -4.13465813642500  -21.52183711579417    1.51008887638499
C          -4.22630139341600  -22.88950374810353    1.43813233043108
C          -4.66093375998112  -23.51487530511930    0.25789707578908
C          -4.99965588488403  -22.75171162872343   -0.84934197141469
C          -4.90733999844395  -21.37730503495322   -0.76976900208125
C          -4.66405492392415  -24.94772202372222    0.46754083903598
C          -4.22575869917914  -25.20686966637350    1.77632768834724
C          -3.91124196769332  -23.91831404499262    2.49935273936849
C          -2.43008614009902  -23.86083134871080    2.91621277674847
C          -1.47836953097044  -23.98089461404789    1.73260788690106
C          -4.80368974991324  -23.73959563592487    3.74109875346664
C          -6.29084143385639  -23.79259092341804    3.41258317398887
C          -4.14250565627252  -26.49576142369503    2.24531309126092
C          -4.48703958270954  -27.55316986882170    1.39456636537169
C          -4.94478394381254  -27.28511996576042    0.10325252241797
C          -5.02997888815881  -25.99028228697133   -0.37008749137277
C          -4.43697625770878  -28.92380550040138    1.87691845764436
S          -5.85370195832110  -29.89680806747815    1.72941042598745
C          -5.14220574866271  -31.23189491348893    2.56731299336705
C          -3.83019140052340  -30.93464868722004    2.93136458263207
C          -3.42121184438213  -29.61725099912306    2.52012828528102
C          -2.06722486338651  -29.23112298620782    2.72911749118732
S          -1.46172870309588  -27.71070378071857    2.06054434601044
C          -1.22158516488199  -30.07647876791745    3.39447428760347
C          -1.65595765250970  -31.33378881432251    3.85508732709880
C          -2.92378367734992  -31.77175254350108    3.61835978376496
C          -5.86997487122728  -32.43999756633269    2.81001693723393
C          -7.12180385071885  -32.67329303056673    2.41556174051500
H          -5.60196841771529    1.21699430457056    5.40368226426603
H          -5.83614109239047    3.25929261329668    5.01420624616923
H          -7.47280837386311    3.77711628206074    1.45939834542571
H          -7.53602490350268    2.04040318875078   -0.27405909156196
H          -6.72717449746497   -0.23425565813707    0.18814322630602
H          -5.91257496292259   -2.16593083169530    0.91070241133846
H          -4.96538683114445   -3.45301923218389    3.51591011620734
H          -4.75443376624516   -5.76767196024046    3.57250958225617
H          -5.27555055713241   -6.04663980932197   -1.35341323012319
H          -5.40517242465870   -3.88123397845640   -0.21992073303822
H          -3.08075697528427   -9.54927318287640    3.51337026497500
H          -3.18598101239412   -7.85396896193712    3.99201714179462
H          -2.05455392237117   -8.86746303549919    1.33832049014369
H          -1.10907953629369   -8.28466679866231    2.71133018883891
H          -2.15644696846623   -7.17509775919114    1.82348657319552
H          -5.62196888082791   -8.08350592455251    4.31800748380409
H          -5.51101896462699   -9.78283222841479    3.85716216265756
H          -7.29730606293360   -7.70179899696467    2.50697489769156
H          -7.83378460102090   -8.95725921955122    3.62644725502904
H          -7.18601855311937   -9.40041622045494    2.04477710378971
H          -4.45872172028059  -11.25881762662304    2.05232146820158
H          -4.96937549063952  -10.99649890480489   -2.19860360953725
H          -5.12137479587471   -8.55157109571609   -2.05455091775890
H          -3.81000635303651  -13.24839595493912    1.64789630117329
H          -3.78805531463141  -16.55574581441892    1.71639582218494
H          -5.51341229410187  -16.47540927702402   -2.13529455483418
H          -5.57672644930391  -13.17210774151626   -2.18544170440296
H          -5.16076341250625  -18.72042743838078   -1.35216042637939
H          -3.99029795713270  -18.93875416816940    1.46054122736353
H          -3.80065142962802  -21.03770159477724    2.41737056827927
H          -5.33050613955257  -23.22418634952517   -1.76275992870365
H          -5.16807468957530  -20.78905937960815   -1.63612228635846
H          -2.23432382029941  -24.67318623661115    3.61910156866756
H          -2.24860417084580  -22.91631917389863    3.43421267032300
H          -1.62941398037286  -24.92610280380492    1.21672851853262
H          -0.44730584544164  -23.93850935931318    2.07651793459385
H          -1.64025171406763  -23.17143426483471    1.02438482379578
H          -4.56970044109425  -22.77843455459848    4.20417874076376
H          -4.56243681968004  -24.52474415348862    4.46104023512988
H          -6.55600179309431  -23.00536946863323    2.71024650842558
H          -6.88001399671040  -23.66067026759932    4.31750661109773
H          -6.55165253786752  -24.75043052734474    2.96782188836779
H          -3.83748947168088  -26.70447938423051    3.26035024759456
H          -5.22222820573100  -28.11388463092174   -0.53266615747745
H          -5.37735019735008  -25.79781534950792   -1.37419379342870
H          -0.18365485754271  -27.95372125186542    2.36414086683831
H          -0.19228448227866  -29.79031857543884    3.55848201970891
H          -0.95052197818962  -31.95940928272686    4.38088256817349
H          -3.23818929272928  -32.75140728569314    3.94160244505665
H          -5.32941978761870  -33.20162680431336    3.35598244709719
H          -7.68552062452273  -31.93704963910909    1.86670261106170
H          -7.61481947386916  -33.60547564072074    2.62488359100658
