106
 SCF done       -189.360895049868          0.000658491517
N           2.64793542489990   12.40125995900730    1.60251019298585
C           2.04048299791651   12.22091911653760    2.78454301276700
S           1.82133998506660   13.54907999958520    3.86748411303519
C           1.01961015608398   12.48658227218675    4.99598854900413
N           0.57726806188803   13.04819572657823    6.19533574839566
O           0.02677530735689   12.31768623799051    6.99710172914409
O           0.78325831097411   14.24186695021150    6.34615842188984
C           0.93034162845502   11.19797707822558    4.55327793685099
C           1.51128797117180   11.01169073684403    3.28062950316467
C           1.59614497748804    9.78605891541319    2.55905452740121
C           1.09723488997364    8.58189098793813    2.93356312595821
C           1.30373440058487    7.44491092480839    2.10833333225082
N           1.99250612030025    7.53899469701182    0.97276395752398
C           2.03818522817075    6.29584884408873    0.46557998531493
C           1.33829942427195    5.33444820177654    1.32750998213824
C           1.41681293068866    3.98504194749430    0.75006387226721
O           0.96747857256341    2.94289851585853    1.18590919671874
C           2.18420209025254    4.20271061334503   -0.48869845105306
C           2.54482425162295    5.62285300921834   -0.62459048234420
N           3.24980416677491    5.83427034100645   -1.76157791289469
C           3.34417435658749    4.65168932763334   -2.32773064446985
C           2.70139731712418    3.59092909823674   -1.58858120038795
C           0.84692841555473    6.06303828545548    2.38684124521598
C           0.07726358639077    5.66020094907434    3.51348595871997
C          -0.22529360033248    4.36316042851264    3.75642645382404
C          -0.97752131717003    3.84376727099193    4.86358405795010
C          -0.96382369680534    2.47482469906512    5.06800894759827
C          -1.64916151794743    1.91439887238894    6.15649639146190
C          -1.76667025156580    0.59303823056584    6.58593589315604
C          -1.14541531644775   -0.59717852779452    5.94123295296192
C          -0.21435101282010   -1.35494450180942    6.90885248934595
N           0.79456206485279   -2.05658082974293    6.14360959206852
C          -2.22433959286040   -1.51872666194093    5.34222444407825
N          -1.61174339900137   -2.56266856858588    4.53507171904597
C          -2.59495489582727    0.61141126454633    7.76529916650398
C          -3.01230634973016   -0.37053562003992    8.58853702637501
C          -3.90547061285102   -0.08472509989892    9.75056547726527
C          -4.17848694761290    1.36314581125098    9.99225761033648
C          -3.75238993563321    2.33818571553760    9.16467946573804
C          -2.96995107930887    2.01142913106581    8.03427215848775
C          -2.39600061928276    2.78904718555323    7.04652018512848
C          -2.42639414509254    4.18036988603431    6.79983352985407
C          -1.73177638840606    4.68423636799054    5.74668618955966
C          -5.17821321374992   -0.83945216714694    9.44844174036416
C          -6.23099457350647   -0.25251340088955    8.86174557670010
C          -7.45103582459014   -0.92490783754299    8.55723622393058
N          -7.66874074289872   -2.20295998732114    8.84064404964101
C          -8.92683972928292   -2.46016728208536    8.43596487572946
C          -9.55970583968878   -1.26490116307488    7.85961701722363
C         -10.93026067081594   -1.55901466939344    7.43031252229569
O         -11.73626919187388   -0.80198430032470    6.92034556472823
C         -11.07821031968423   -2.98214852273399    7.77120201633214
C          -9.83601125149646   -3.49472482662285    8.38165305448211
N          -9.96293398060907   -4.80426964926883    8.69686433283661
C         -11.18184623471844   -5.12950439495335    8.32769535363129
C         -11.93082916786111   -4.04234827585669    7.74278490561211
C          -8.61662128251595   -0.27023257563683    7.92498297779157
C          -8.65522625368566    1.09384281083161    7.52139012229979
C          -9.75480166262781    1.66913756338978    6.99401138013132
N          -9.88520884557664    2.97234850551688    6.59011349737438
C          -9.01687841540537    4.01207537546111    6.64161978620045
S          -7.45371162093657    3.92680596440778    7.38708160633536
C          -7.17996675169449    5.60092165229005    7.01697141296656
N          -5.96390339266142    6.14699759261087    7.39951981694593
O          -5.72828312550930    7.30651933726825    7.10521831066383
O          -5.19859562387901    5.41056403060879    8.01401218764006
C          -8.23570557083534    6.18221531745892    6.36187044074090
C          -9.29686316778915    5.29487835668184    6.13698656738719
C         -10.52799389736745    5.64258434230166    5.45147224538827
C         -10.92483049025046    6.88076396288320    5.17782289705676
H           3.02140163490602   13.29945803278037    1.35349703950443
H           2.80576797800571   11.61997136417386    0.98897342026000
H           0.46578727970021   10.42494080059631    5.13689012856048
H           2.11818835088389    9.79496074853206    1.61163820885731
H           0.55200390334312    8.45793981640451    3.85591852153669
H           3.86765323730806    4.53853000244830   -3.26135012486677
H           2.66488219484721    2.55941919783929   -1.87908823908631
H          -0.24807221608735    6.43964229316613    4.18786098003597
H           0.15444403083978    3.61864448317185    3.06847596650855
H          -0.40396961157208    1.84422292580675    4.39290356459917
H          -0.50997943777903   -0.25364954098859    5.11924829422040
H          -0.81655362462959   -2.01887846868832    7.55035757869084
H           0.29294968919099   -0.63157548308312    7.55665938789042
H           0.33460194069324   -2.71627190614032    5.52232694117984
H           1.42312103702138   -2.56501389875684    6.75510129260443
H          -2.93356189497432   -0.89276757799238    4.77328044373686
H          -2.78628950573429   -2.00563425393552    6.14385627005621
H          -1.14601298882100   -2.14913431314783    3.73286751032694
H          -2.32106945355153   -3.19842806959383    4.18611442853781
H          -2.76171508255086   -1.40785871510861    8.42486308930825
H          -3.46305440384123   -0.52735527311011   10.65343365975135
H          -4.78488361104134    1.58718617491852   10.85662454481726
H          -3.99626191168022    3.37461674427856    9.34438396728047
H          -3.01167253887459    4.81777880466495    7.44465903705488
H          -1.76099264017542    5.74463189176079    5.55025100664117
H          -5.21745531705259   -1.89115917143743    9.69016585762446
H          -6.17151412226065    0.79764343448678    8.61220393622235
H         -11.54185690129591   -6.13336015346050    8.47245833657875
H         -12.93777025474750   -4.10154846669971    7.37913611731117
H          -7.74525474392237    1.65355215221873    7.65473168654900
H         -10.65252644446361    1.08038669855062    6.85466225550075
H         -10.78486963618091    3.20475895634945    6.18837537125754
H          -8.21844581459576    7.21046126655329    6.05224508612279
H         -11.15402224882181    4.81682176167703    5.13600893505465
H         -10.35769639175923    7.74712978079418    5.46845221736075
H         -11.84555159717411    7.06681441300912    4.65401334961858
