114
 SCF done       -195.947370259802          0.000421371926
N           6.06466953429135   -0.22691396811913    1.26252216168155
C           6.87440205709743   -0.58894606015524    0.23507313498286
S           7.70475152410256   -2.10842604509706    0.29212409772593
C           8.44886224032495   -1.75697844941351   -1.24052988234510
N           9.31856100456046   -2.70640415070632   -1.77405308528315
O           9.86369643970799   -2.44757291555356   -2.83238539237974
O           9.47528215401931   -3.73237454846464   -1.12997713161478
C           8.07427356817143   -0.54104476644097   -1.74488939241360
C           7.15410247016053    0.14089519012765   -0.92529016258326
C           6.61988424361551    1.42941598062111   -1.29612870878273
C           5.46263993488917    1.97488455767980   -0.87937602933162
C           4.98400078329265    3.27605413509303   -1.25431251069767
C           4.19905682679211    4.06519135964894   -0.46555290892910
C           4.08131585805591    5.36859296669097   -1.08008367409631
C           3.33294770256023    6.42781768877259   -0.55396541287835
N           2.72788345884275    7.29450651856333   -0.10464541132409
C           4.82172159589007    5.38691291380993   -2.23397254674699
C           5.36825680305922    4.07464825971685   -2.43342481714216
C           5.91073773163501    3.61602133184755   -3.61334968464777
C           6.48940815636708    4.42966138909824   -4.70912060602912
C           6.56528933218000    3.62403566843928   -5.81467543591665
C           6.10417753858234    2.30934357340809   -5.45912883395697
C           5.76672485175605    2.29031683710311   -4.12469175676611
C           6.00714007471566    1.23199299681787   -6.34990763728402
N           5.92714859000926    0.35454933429633   -7.08575112456797
C           7.02683103511595    5.74302301909778   -4.62400981292791
C           7.38924027901261    6.37342352963468   -3.48020594401108
C           7.88794682720389    7.71421534725011   -3.36392376701984
C           8.16648896828745    8.52161125606751   -4.45393208852823
C           8.59913892465820    9.84062177886244   -4.26155301741268
C           8.92117384427233   10.83818500038437   -5.18519406346194
C           8.95518770800818   10.69434725037284   -6.66363073104850
C           7.90663144400507   11.59473568339169   -7.35278106798408
N           7.55612885468859   11.00523984819421   -8.62432893559769
C          10.37191100240713   10.95497715571022   -7.21907006558898
N          10.42866072890262   10.63901281043792   -8.63512285458615
C           9.23080160014458   12.02194047520983   -4.42209778466210
C           9.51194238725800   13.28586193205983   -4.79835815712848
C           9.82344546161866   14.34905399868026   -3.80345603174389
C           9.70708662438496   13.92667471360236   -2.37775580471973
C           9.38632140833447   12.67001110297603   -2.01265246995266
C           9.12874467501287   11.68554877841885   -2.99480103046319
C           8.73926068130968   10.35995188916430   -2.91147789448346
C           8.47548937093043    9.51309531816047   -1.81315710862590
C           8.07311529428851    8.23608698745307   -2.04142915410320
C          11.24296908650890   14.78067043674377   -4.10590832715523
C          11.54906519090617   15.86748605690963   -4.81577818564317
C          12.87965771486151   16.24518009633159   -5.21581310368496
C          13.18619491379271   16.88049400510457   -6.38211169213672
C          14.62389362778533   16.88192108792336   -6.54392631971840
C          15.30703658329109   17.47408515930323   -7.61185931032739
N          15.86765643551335   17.95101761343907   -8.49362029679213
C          15.19039750263556   16.21107787455544   -5.49061562426997
C          14.14197721024897   15.83399315229607   -4.58612529093814
C          14.33135747499951   15.38820094759163   -3.29463924506731
C          15.55230924838953   14.75351242138078   -2.75699334737467
C          15.47515588493405   14.80238858329643   -1.39484631598144
C          14.21432452064055   15.40292979702676   -1.03172333617931
C          13.50604571638100   15.70040842710868   -2.17317109973486
C          13.78945123950423   15.62894804005506    0.28264087827206
N          13.43704683426897   15.80451080866740    1.36160238558015
C          16.51871775813766   14.04061270669826   -3.53360842470011
C          16.22403705907299   13.51063983473711   -4.73616572496761
N          17.10255975150795   12.81195565062981   -5.51895597195503
C          16.76437119562138   12.17801804167983   -6.66500537512161
S          15.11042001085093   12.15106396397453   -7.19002844308314
C          15.57916662478614   11.20390740096694   -8.56983544366865
N          14.57326522074506   10.81380371140942   -9.43960146457619
O          14.86853967363769   10.14369200425224  -10.41303427317562
O          13.43271984813206   11.17081164417029   -9.15241234710865
C          16.92500386171013   10.93970862688938   -8.61211095514416
C          17.62757007863317   11.48798420886768   -7.52881143228333
C          19.05621689023220   11.37108615683005   -7.31086687800343
C          19.90880542243298   10.74964217190343   -8.11899566399805
H           6.11203344170617   -0.78472080916784    2.09993155525491
H           5.90545608839407    0.75995091398095    1.39632669062631
H           8.43800831196408   -0.17052275859664   -2.68658931316785
H           7.22879737975126    1.96961206944048   -2.00834648590961
H           4.82874445168092    1.44904992691710   -0.17803660726507
H           3.75572557141226    3.80171982907760    0.47711092032722
H           4.86821019130097    6.19283896017893   -2.94046003151481
H           6.94567542846170    3.89228089591449   -6.78253216727194
H           5.32732954834908    1.46487882848635   -3.59890604622718
H           7.20019261571551    6.22029055390345   -5.57987402090990
H           7.28577958173107    5.83917888737818   -2.54450290181952
H           8.04764438006324    8.14702771001398   -5.45860277941364
H           8.68455720290984    9.66632091086354   -6.92278807073601
H           8.30906500805487   12.61681706490365   -7.43765768720432
H           7.00400540910160   11.63862018344529   -6.73244392009116
H           8.39946095315913   10.92801609734150   -9.18853305345736
H           6.87122709351551   11.56718390533979   -9.11548590684714
H          11.09089064423252   10.37608521638963   -6.61346094397868
H          10.62746963683482   12.01093552362695   -7.10558368370332
H          10.36761958984338    9.63403491364503   -8.76987234080384
H          11.31950023057765   10.94077637414430   -9.01829555045473
H           9.56106475068934   13.58099178197982   -5.83591659970941
H           9.16459521102109   15.20902389335621   -3.98621072470768
H           9.91458396775853   14.68606739877830   -1.63912710538038
H           9.31163031945259   12.40200675272409   -0.96900239480318
H           8.58911810793363    9.88827889266763   -0.80707108248300
H           7.86041787507709    7.58075097204068   -1.20889119378035
H          12.00729588087543   14.10515765597917   -3.75114968115531
H          10.75593651794311   16.48975118522283   -5.21382607396792
H          12.49789123711468   17.28920760254223   -7.09819655868763
H          16.24113191642743   16.11374516785172   -5.29730336727449
H          16.18977890227361   14.42114241353320   -0.68977876726437
H          12.56335209192748   16.21019990364972   -2.21819152998465
H          17.48432789619171   13.86191834630115   -3.07864692177133
H          15.23355266377569   13.60641420760126   -5.15588871444545
H          18.06663230562906   12.75376173017930   -5.21503503608878
H          17.36504645824934   10.36570149733130   -9.40608690609826
H          19.43995446308911   11.83876704037015   -6.41269299879363
H          19.59875363001961   10.26948790250387   -9.02963852900160
H          20.95899887306004   10.70690214752193   -7.89140230714627
