100
 SCF done       -173.060086349613          0.000991028009
C           2.43195623619736   -0.17878774495360   -7.08988920330809
C           1.98236536499188   -1.44967970866264   -7.06682228651494
S           0.31890293238862   -1.58720380263630   -6.59525367368368
C           0.21294638866471    0.13229476761503   -6.40978874552394
C           1.43268914951706    0.76732280185226   -6.71385096294593
C           1.53612888930695    2.15826935521011   -6.63134834399020
C           0.45098507127037    2.93319623744331   -6.25905173818455
C          -0.77210438333509    2.29479883034511   -5.92106237359866
C          -0.87653958533775    0.89536489837619   -6.00917076446431
S          -2.45063940412478    0.33107914963530   -5.54143658007342
C          -2.94217615300024    1.95049352689112   -5.19479302662286
C          -1.97864805180015    2.86882232903408   -5.42791409480750
C           0.56717833915899    4.37176096468442   -6.23169953253676
C          -0.45963731000335    5.31892637246453   -6.66448608618944
N          -0.12622284083895    6.57318742305154   -6.53345537386286
C           1.12883412384538    6.55958227696454   -6.00824572373000
C           1.61879779743523    5.17868474009681   -5.86545546957568
C           2.92975219991056    5.18658268414635   -5.25859963648532
S           3.85115180351585    3.87295014590397   -4.87822088727541
C           3.21001653252641    6.57769549582941   -5.01751079303724
C           2.08125563850356    7.39767223560087   -5.48730927333240
N           2.28103270328293    8.71205801545657   -5.19342969369161
C           3.40618809888211    8.75135370649645   -4.53629886922175
C           4.05577178956140    7.45469120367809   -4.36316931886258
C           5.28938349051208    7.22509110792343   -3.66625523496894
C           6.09067743113728    6.15303170525762   -4.01015230395358
C           7.26870853969074    5.89935753497826   -3.29303990434985
C           8.20869299228620    4.88042245520790   -3.42129604565235
C           8.18339214210408    3.80053492419038   -4.44694693695603
C           9.47953521793420    3.81535491841491   -5.27692933676116
N           9.83085771174120    5.19224398529397   -5.57734846660259
C           7.92435492215600    2.42971861590018   -3.80113012971207
N           6.77813923494661    2.52388397490844   -2.91478643189890
C           9.18868551844493    5.08773222222817   -2.38293353093508
C          10.28746901295065    4.39378150226279   -2.03138547680244
C          11.14813713618076    4.80898144829011   -0.89404192627683
C          10.68631929504392    6.03973115299731   -0.17315774960769
C           9.59287542874841    6.73161499191810   -0.54475284157312
C           8.80545734466801    6.29269484404138   -1.63311111096358
C           7.63680396547935    6.77607127410408   -2.19414580568087
C           6.81885070995409    7.88564741934240   -1.88749013774044
C           5.68540532087722    8.10168338439052   -2.60607104351885
C          12.57568115228434    5.06766736820282   -1.30828728181517
C          12.97302954172137    5.32431822414951   -2.55941722992974
C          14.32813253765548    5.63080829828085   -2.90794760251551
C          15.43224648203982    5.92295602197394   -1.99008669355794
N          16.56258791025579    6.20577874235466   -2.57354128716067
C          16.30909879960817    6.12763400272939   -3.91050740697493
C          14.90265121795603    5.76518425568935   -4.15096523639205
C          14.66211302682126    5.65678378620111   -5.56761928890583
S          13.27121025777189    5.17770810499261   -6.30449630848449
C          15.92298668173473    5.99656576843884   -6.17725684772537
C          16.91925487865175    6.27914084591772   -5.12762657477704
N          18.12250981627436    6.59887549283943   -5.67998682047884
C          17.94992021907974    6.50003559371096   -6.96761333216185
C          16.60008794634055    6.10085954809615   -7.37083477508757
C          16.13739217747242    5.95436437009797   -8.72097248766622
C          14.84995920259067    6.23355282855854   -9.09232522718637
S          14.55187892662899    6.07943133101144  -10.77199776637600
C          16.19910237085069    5.58110174789974  -11.03850337582144
C          16.94008679655855    5.54686108976215   -9.84549055124981
C          18.26752659737699    5.08789834356146   -9.87190238757133
C          18.85599869919998    4.73124810079496  -11.05723896446253
C          18.13628132184502    4.80511609119475  -12.25941403307740
C          16.79258715181684    5.22264362940222  -12.24071035959816
S          16.09087592148708    5.20367636979166  -13.82782639549168
C          17.58762150603986    4.64921584190344  -14.49904752780325
C          18.56200611139156    4.48218222872693  -13.58056207610273
H           3.43462041627496    0.10200426699097   -7.35707276958036
H           2.51862138141239   -2.34812969067554   -7.30230053552711
H           2.47037567354518    2.63121681281473   -6.88885240397082
H          -3.93524345709624    2.11816452562813   -4.82661539034968
H          -2.10706335417575    3.91833641870130   -5.23368278478139
H          -1.39648400186225    5.04923994265031   -7.12000273858036
H           3.80893941942544    9.69572007290786   -4.21298884998669
H           5.80737270707413    5.52099246420065   -4.83610657597042
H           7.34651894714334    4.00683830190779   -5.12228163342102
H           9.33902254170338    3.18379096289520   -6.17114052276702
H          10.30249560206975    3.38577861328099   -4.70218488311268
H           9.14346522837422    5.60695517498750   -6.19791102444885
H          10.73310895213370    5.23443573353810   -6.03900260913837
H           8.78414054615838    2.13117480145103   -3.19407851726917
H           7.80545912276003    1.68445568891225   -4.60750798789746
H           5.96621595983368    2.86265884143874   -3.42195563067691
H           6.54520673920093    1.61130269894101   -2.53901224370495
H          10.59698443256023    3.50054603101705   -2.55278856426144
H          11.16868803414391    3.97310268834735   -0.17523272244443
H          11.29554590750313    6.35995987004188    0.65840742769273
H           9.29647864039313    7.61979177446383   -0.00550746856557
H           7.09344849515600    8.54710546585435   -1.07889617465157
H           5.04158472189977    8.93367490350577   -2.36355536223196
H          13.28470818683059    5.08809971352496   -0.49265827032321
H          12.26405064791517    5.30454902511475   -3.37732851034826
H          15.36750683905277    5.94053085800972   -0.91646689922216
H          18.74722916473384    6.76287336191509   -7.64015740213157
H          14.05391940048671    6.55930053623141   -8.45186069248530
H          18.81623665386421    4.99556800178632   -8.94820115080446
H          19.87626364430672    4.38004214970529  -11.07853032144818
H          17.64042487359674    4.48146869815385  -15.55692347218256
H          19.55569993717844    4.14415989953552  -13.81358861126129
