90
 SCF done       -147.585927803079          0.000216706282
C           2.26982626559244   -5.53834145985589   -5.02412914484680
C           1.21310154793788   -6.28264446157308   -5.42076974197947
O           0.21575067479904   -5.86927196882326   -6.22818099132019
C          -0.80902790084300   -6.79361913937952   -6.50072161999915
S           1.27384030872512   -7.90272546484256   -4.75725934513381
C           2.76091702427615   -7.52611922305476   -3.93454828005290
O           3.41323470878520   -8.42417198372603   -3.16935053980507
C           2.82917111227283   -9.69613945448693   -3.04277719455386
C           3.17758480890213   -6.23321846495318   -4.16480555958646
C           4.37369194466604   -5.70527063868879   -3.58260966707443
C           4.86278410564181   -4.46157635474063   -3.79413162022351
C           6.04030868049148   -3.94612943966036   -3.20601494687378
C           6.61335911345911   -2.68064229025342   -3.40361961215423
C           7.80811197312412   -2.48182156828421   -2.64677047446775
C           8.49394050881163   -1.25613975936391   -2.74532263352161
C           8.00953642279275   -0.27360590339713   -3.56133776692853
C           6.83153341258097   -0.46880370333310   -4.30726523658177
C           6.14221615153312   -1.64526402880863   -4.23571915958642
C           8.15280310152697   -3.59466665527555   -1.86064294282521
S           6.98989366897245   -4.86923902771175   -2.08309219229508
C           9.25138727171812   -3.72691351774234   -0.99077798782977
C           9.50943215943869   -4.82177982781507   -0.22473598806357
C          10.60129183926574   -4.95995706004130    0.66226303267818
N          10.74845572524667   -6.10380347768299    1.42604251670342
C          11.86174060176877   -5.97667367931354    2.19514643760203
C          12.64358136368294   -6.60821980716750    3.15583053402089
C          13.69624973059327   -5.72843790940618    3.44240917476105
N          13.55548976736646   -4.58970129759131    2.66988693396797
C          12.44050184744170   -4.71572217388703    1.90327864544997
C          11.65481148008570   -4.08078247135583    0.94823426559914
C          14.77990136793266   -5.85760138549714    4.34103693534835
C          14.99528542869449   -6.91290626313793    5.17225759719824
C          16.08650318431436   -7.02685287040186    6.05546689917024
C          16.36543296646711   -8.06996099622842    6.95519790686253
C          17.56630773990196   -7.86784847805962    7.70820353687528
C          17.98787343320648   -8.88335730687761    8.59269979962645
C          17.22649440266293  -10.00506175682253    8.75708948765105
C          16.02238691841883  -10.17734323379893    8.04989388753411
C          15.60152799032565   -9.23558274404800    7.15538911922410
C          18.20152725938559   -6.65386872935570    7.40326657703607
S          17.32426617683839   -5.81551881641282    6.15765405617528
C          19.36548658817222   -6.00996105705538    7.89947588744046
C          20.03408971686606   -6.29010623612850    9.04010545057971
C          21.23739236734487   -5.63813042183203    9.47526005504826
C          22.08887739215627   -4.92625373527540    8.66323069909300
O          21.87874191438617   -4.61761815483195    7.36728198446309
C          22.98038281245267   -4.13338301678642    6.63857373530789
S          23.54644882633088   -4.43402318133137    9.48618348640286
C          23.00249180103441   -5.21196947240158   10.94750041846305
O          23.72440362907639   -5.19375535982650   12.08755944078272
C          24.98987138625748   -4.58416698674685   12.02893027921912
C          21.76697854674085   -5.77809508563973   10.81057814491952
C          21.11860591059143   -6.41555113301628   11.94559184470580
C          19.81414311463561   -6.43106728419559   12.18913908600834
H           2.39579792389753   -4.51853162125261   -5.33157328929568
H          -1.51292746102526   -6.28161890760602   -7.15349074015765
H          -1.31638182587722   -7.10479864064191   -5.58114429644970
H          -0.41564709048945   -7.68256111741884   -7.00572538932586
H           3.49425915386862  -10.27420281062396   -2.40448259209784
H           2.73373994722899  -10.18571601126325   -4.01819467638937
H           1.83710506647010   -9.63149371751808   -2.58266262991685
H           4.90715460085179   -6.38106271532563   -2.92780469003599
H           4.33954346339952   -3.78835473705673   -4.45762940084186
H           9.39777527451899   -1.10029240174063   -2.17607700283919
H           8.53055818782029    0.66916780857363   -3.64143991105755
H           6.47516844185782    0.32894153578735   -4.94240127879010
H           5.24019325525237   -1.78775464866645   -4.81126100478932
H           9.92093595321851   -2.88103539173071   -0.93743172279775
H           8.82619726025517   -5.66089159298303   -0.28257875296200
H          10.11510662663069   -6.88389786174488    1.40386305669960
H          12.49331001449973   -7.57165655738558    3.59904109946277
H          14.18373287781091   -3.80568355040443    2.69827686262308
H          11.80520899501026   -3.11702505715739    0.50583032719082
H          15.48839269594698   -5.03765689113163    4.36033911857608
H          14.29168701365013   -7.73218979070149    5.17247730952047
H          18.92238050980270   -8.78669534224339    9.11974707033351
H          17.55205352704508  -10.78069569397450    9.43479658736686
H          15.44066826402584  -11.07322137317816    8.20978858089485
H          14.68994142819285   -9.37951756380222    6.59552203248262
H          19.70476982581416   -5.17595154950533    7.30092594053877
H          19.67358196508328   -7.05179304878196    9.71185341887363
H          22.62507914841764   -3.97502287436690    5.62235847888734
H          23.80342826958586   -4.85535843488891    6.63572445871211
H          23.34098592118098   -3.18659427493126    7.05595977974826
H          25.41863172494979   -4.67875181900416   13.02446418917592
H          24.90498163871393   -3.52513680382774   11.76188792336252
H          25.63666571705634   -5.08172761612087   11.29816381162734
H          21.80677644790262   -6.85557265577134   12.65640695442593
H          19.09974922195599   -5.94777599527619   11.54501275700228
H          19.41784572067425   -6.91694435835204   13.06446241006381
