110
 SCF done       -188.520951533476          0.000914372008
C          -5.19718994562427   -3.60513828013124    3.32170054004091
C          -4.86627535201709   -4.42379776691408    4.37463118865361
N          -4.18188378702687   -5.56724951796847    4.28547517800206
C          -3.75841087823664   -6.00441726777109    3.11300920534477
C          -4.03363453659198   -5.25127015650365    1.93727886159719
C          -4.77056422111432   -4.02375345330366    2.05243178800533
N          -4.94446571455953   -3.43776758571624    0.86519964002855
S          -4.24932919655549   -4.34629375501680   -0.26421773968681
N          -3.69362461463707   -5.52424528309662    0.68260928784284
C          -3.02682057535248   -7.23092882437605    3.05599603930370
S          -2.43695284508739   -7.86949644613161    1.55659441414576
C          -1.73917123008861   -9.23600579893611    2.37318907629141
C          -1.96898265289389   -9.17342335309858    3.73693492125063
C          -2.69152369447209   -8.04810017745079    4.11715386057153
C          -1.03333033752920  -10.24308748237697    1.66128755560784
C          -0.41220068417446  -11.36753324689243    2.16685511357017
C           0.19980092273999  -12.15149584693302    1.19074584988263
C           0.06077950869296  -11.64737171208101   -0.08547214233357
S          -0.85151218923623  -10.16449593594549   -0.06833161577211
C           0.55280019321493  -12.18734609876937   -1.30145046948065
S           1.49321414365064  -13.65122572917632   -1.32561029917526
C           1.65188902809777  -13.58403479945151   -3.06108604746567
C           1.00018700808286  -12.47372301342447   -3.55980292523038
C           0.38907520147564  -11.69516090271771   -2.57943029501771
C           2.38247017766707  -14.60423243957138   -3.73434449723154
C           2.52632055407502  -14.68098198811348   -5.07522417600480
C           3.24627668501905  -15.68267209409471   -5.81535981571976
C           3.19169726144616  -15.65161163838481   -7.19126850352335
C           3.87515987739770  -16.61303128414595   -7.96098079131216
C           3.96374130135165  -16.79121292161670   -9.33236106946348
C           3.29134818357987  -15.96722703126714  -10.38089266641399
C           4.30988790875471  -15.26647292501227  -11.29776868606839
N           3.69972586429769  -14.08977117492907  -11.88859857186076
C           2.28527874588509  -16.81828515246326  -11.17602075284107
N           1.45757430168994  -15.98111255704386  -12.03354697480355
C           4.80800910320089  -17.94133343688287   -9.54796030556286
C           5.24515863572498  -18.53998312785772  -10.67153249521331
C           6.06106843718371  -19.78921134020072  -10.63096676011099
C           6.50812726711659  -20.19726617046075   -9.26590450045171
C           6.09169693054704  -19.57162323663180   -8.15004521293520
C           5.22654816610022  -18.45288736574718   -8.23163992974133
C           4.65512183147076  -17.63873855633587   -7.27821324662530
C           4.70102871666202  -17.64408076800477   -5.86283699903017
C           4.01964224715240  -16.70438059915710   -5.16403089979656
C           5.14449288497329  -20.84101666489591  -11.21602517573392
C           5.12326324333143  -21.16858365985019  -12.51043889734566
C           4.22361927690085  -22.11608881010391  -13.10254111376526
S           4.12137843931100  -22.22793363381994  -14.83531441250986
C           2.89807847890273  -23.45802843683704  -14.73764733753882
C           2.61547928729236  -23.75691600589567  -13.42160986608740
C           3.35479908542490  -23.00203991989662  -12.50858003356172
C           2.30129535263029  -24.00986694620793  -15.90584238210301
C           1.38944306205288  -25.04155176196598  -15.98240771793231
C           0.97237913715668  -25.31762355656968  -17.28412375588636
C           1.55264835130751  -24.50301599539454  -18.23191381986222
S           2.65119051013653  -23.37569891945856  -17.48794806502372
C           1.32562277910083  -24.49049308148770  -19.63310740809160
S           0.20420616332215  -25.59639530081452  -20.36717519504982
C           0.48494451893864  -24.91279720425922  -21.94697127477927
C           1.40946348637258  -23.89019982931417  -21.87217614758551
C           1.87904541905297  -23.65498265132120  -20.58170597388638
C          -0.22696838931699  -25.43319341810805  -23.06359351084621
C          -0.13532276763364  -24.95562315523838  -24.32300099422575
C          -0.85446959442094  -25.45142089905158  -25.46297688670851
C          -1.71944173929842  -26.53950199201537  -25.47669586406867
N          -2.38964755250599  -26.98820616492758  -26.54061827547175
C          -2.26814767371094  -26.40303645696369  -27.70221291411437
C          -1.42553940985819  -25.28792071460599  -27.86215262875633
C          -0.70365782163214  -24.80363884713344  -26.71769087739185
N           0.05134581753333  -23.74607426492835  -27.01465932458463
S          -0.13502885215120  -23.40612700662408  -28.57473455734827
N          -1.17286224480365  -24.56718281861538  -28.95729191023324
H          -5.75188820125091   -2.69127613892977    3.44969011084849
H          -5.16147489594003   -4.16528211058280    5.38302698534772
H          -1.62188492417361   -9.92179306586646    4.42573698797539
H          -2.97607738604627   -7.80783473120416    5.12488999363843
H          -0.40369995164777  -11.60958263791533    3.21379327101352
H           0.73227692133667  -13.06379462834207    1.39442085832135
H           0.97153287876107  -12.23104034653338   -4.60632199168203
H          -0.16298971302043  -10.79328495103763   -2.77885044461709
H           2.82568334121375  -15.35037115846299   -3.09027325914892
H           2.04745385579865  -13.92548426198434   -5.68473746471008
H           2.61797978359144  -14.88144327443749   -7.68759629903668
H           2.73026602285289  -15.16887952899213   -9.88513852305801
H           4.68530842927028  -15.98527048651735  -12.04474938545080
H           5.16276592336505  -14.93744478715741  -10.69406014319083
H           2.87713962480122  -14.38065842200311  -12.41054855217618
H           4.34510324405132  -13.64122653833343  -12.52998068446703
H           1.69466847095201  -17.41188385430152  -10.45638723771450
H           2.81800604883479  -17.52172896529520  -11.82123208340658
H           0.89603038347242  -15.35485689227797  -11.46449373159684
H           0.82307075522693  -16.55649306278381  -12.57763357212621
H           4.98080419201666  -18.18633022818233  -11.65729679619789
H           6.92811565931811  -19.67833743126951  -11.29448987437652
H           7.16265020406661  -21.05458754582143   -9.21981463089275
H           6.42128971713186  -19.90525652250372   -7.17633269385216
H           5.28209250183326  -18.39976138589210   -5.35389452722947
H           4.06192798087422  -16.70836413090186   -4.08622450525806
H           4.44582519103339  -21.27563857298071  -10.51739490854241
H           5.81016390360084  -20.69068517180109  -13.19784985445379
H           1.88744776589509  -24.49275976237841  -13.13238934802146
H           3.26139022117312  -23.10787009262349  -11.44305667017724
H           1.03906336702661  -25.57826654408137  -15.11999269269446
H           0.26367561420488  -26.08506334496528  -17.54101515153205
H           1.73303388244320  -23.32981757470673  -22.73015833159147
H           2.59962939161520  -22.89710863727590  -20.32835349325469
H          -0.88743700450306  -26.26091371039759  -22.84523738039395
H           0.51471027552956  -24.11890934558367  -24.53617776634992
H          -1.89953780812288  -27.10826952594665  -24.57566541589502
H          -2.83477066206272  -26.80576427122380  -28.52860860489000
