57
 SCF done       -149.491172140069          0.000801192725
N          -3.55687620956262    0.95907621175995   -0.56261201234312
C          -2.45855948190591    0.66736661672579   -0.42774481947392
C          -1.08293775511584    0.37108626824010   -0.31535169229440
C          -0.12713467899186    1.36495504596664   -0.20320797849118
C          -0.37370681664428    2.79516488717740   -0.09169646030521
C          -1.31459691035056    3.30239979496561    0.80912085529959
F          -1.93859686717757    2.46538459340919    1.64318211209660
C          -1.57299480726795    4.66395015189025    0.89233581953027
F          -2.45026996813166    5.09958879322879    1.79366480149318
C          -0.89368359135388    5.57747052313932    0.08623290847666
C          -1.16685670856343    7.02103417629488    0.18153258008398
N          -2.41134634587344    7.42336561318844    0.15587967509912
C          -2.70919311990273    8.72649818623826    0.22302346348516
C          -1.78531759931800    9.73779066265433    0.31730437682017
C          -0.43829160420796    9.35061540315014    0.36842948295961
N           0.65511144417490   10.10869717084444    0.49043662543593
S           1.94022993815999    9.15436277252405    0.53482483278577
N           1.20396464097785    7.73746020762566    0.40603035076115
C          -0.10866099100754    7.95171574120490    0.30631782058741
C           0.05447515714467    5.07624889956532   -0.80490443073988
F           0.69744817411485    5.90372409755811   -1.63198041942295
C           0.31309224897889    3.71639941434293   -0.88639412142239
F           1.21659688493095    3.26981068440838   -1.76870063639052
S           1.47043631605276    0.71762878574009   -0.21746109785133
C           0.87560370754116   -0.90637487333515   -0.36481661900685
C           1.75262920457548   -2.03403006358083   -0.44280360362495
C           3.08277893661738   -1.93797312503379   -0.26566766566516
C           4.04262169675739   -3.01701052524985   -0.32627492773570
C           3.80678760934455   -4.27901311322251   -0.88828680497230
F           2.62678298877819   -4.55716273622001   -1.45381200044329
C           4.78377664729702   -5.26282397832198   -0.91102629061120
F           4.50593034948754   -6.42285669825186   -1.51392556685499
C           6.05307230762539   -5.05329746621624   -0.36925151854630
C           7.06586223395700   -6.11160692449485   -0.37403722052906
C           8.36479118931738   -5.91394224426431   -0.80159492027555
N           9.30863587198711   -6.86050373800960   -0.84755969363790
C           9.04421751008710   -8.08116941365005   -0.47474220027390
C           7.76537246503126   -8.43517928078386   -0.00596411765486
N           7.31791436643599   -9.61127755456714    0.44058923507130
S           5.79247147081064   -9.44032507930067    0.89374364099365
N           5.60668169054422   -7.88371887545819    0.56072389883578
C           6.75004621686914   -7.41959814913446    0.05416159621258
C           6.30366623224379   -3.79284800856944    0.17486933162619
F           7.50103743418693   -3.53258160189127    0.71574678058305
C           5.33051579249929   -2.80874652067541    0.19146577565684
F           5.62360583241926   -1.61983260408448    0.73717368587350
C          -0.50598064507908   -0.91914759514904   -0.40750209886296
C          -1.28933449217183   -2.18867205448094   -0.53476817803846
F          -2.60742696945175   -2.01078655721731   -0.46826494416843
F          -1.04153213846858   -2.81634255822995   -1.70008561281052
F          -0.97170213371814   -3.06985818011810    0.43406931933729
H          -3.76805298794942    8.93938697380146    0.18918946000076
H          -2.06485945660563   10.77693517524560    0.35696371952645
H           1.28179053595746   -2.98387295141906   -0.64165442532394
H           3.50768174177021   -0.97148517315126   -0.02309907775751
H           8.68533791574777   -4.94295362269739   -1.15160465554582
H           9.84229552639215   -8.80673558412069   -0.53216633754335
