108
 SCF done       -180.149991075369          0.000659314187
C           1.91101730949183   -0.26751047935521   -1.53369958085668
S           1.37825795265587   -0.90272532407109    0.11297739405424
C           2.29100263416208    0.54328784798507    0.43806839249080
C           2.59681826522720    0.87083849620840   -0.83520656616028
C           3.33793659161747    1.96574657157064   -1.43801853096808
O           3.48773752364482    2.12709220038344   -2.62613153379025
O           3.84989478826136    2.78320032692362   -0.49566895878183
C           4.56482079974315    3.93066646304394   -0.96823583300317
C           3.64638451384017    5.01882712248008   -1.41908437420514
C           3.50747440408872    5.43780189094902   -2.69796750037030
C           2.54769322493188    6.53322208593883   -2.72665257888642
C           2.12268761305340    7.24919552553814   -3.84725827810137
N           1.76868198000591    7.90147072314131   -4.72590211584072
C           2.14387346445147    6.78998672910163   -1.44765723831178
C           2.82093129385612    5.87275165818099   -0.56230212210745
C           2.69843110401588    5.85304701589561    0.80705119231981
C           2.08727753862897    6.92766649168809    1.63187965054152
C           1.90964634777876    6.42466608636652    2.88863110532771
C           2.43171777391341    5.07885544616916    2.91830317861597
C           2.95037883195607    4.75667420642334    1.68595890096321
C           2.40253368827135    4.23853056722789    4.03834695511049
N           2.37210567762295    3.54540951768355    4.95354717356593
C           1.87156529745857    8.25042356352921    1.15112544369169
C           0.99175274529135    9.14418713960995    1.65984361125050
C           0.69139188278182   10.41911104599757    1.07286163489427
C           1.11433371475197   10.76959664544506   -0.20026588385435
C           0.72864632234553   11.99230366954627   -0.75917074766015
C           1.00107935512419   12.54676161247091   -2.01307172136618
C           1.84757120071796   11.94418027538400   -3.07625609512390
C           1.04434580622622   11.68475853911585   -4.36980151169377
N           0.13002719270541   10.58222193521743   -4.15147090111896
C           3.09853442887196   12.80483094790932   -3.34209126425446
N           3.93355723919160   12.79461929522326   -2.15718189600901
C           0.36125664073989   13.84167966530873   -2.04120449971068
C           0.32554609109709   14.81873624743286   -2.97226389598704
C          -0.25400130438642   16.14984996269666   -2.66423927324803
C          -1.10064088246908   16.19399707629032   -1.43130526619568
C          -1.08052696999553   15.20401147615844   -0.51536112963709
C          -0.32626639096467   14.03395426404599   -0.75326636477439
C          -0.09919188798455   12.90199543759452    0.01178717456484
C          -0.51247898556015   12.53320050238344    1.30978693316267
C          -0.13625254503804   11.32639911694942    1.80835898668752
C           0.85661453503058   17.12622269945566   -2.29921357204529
C           2.01836497599158   16.73259300857262   -1.76681345803894
C           3.07610355195677   17.58165814567625   -1.30580387492421
C           3.29673919565587   18.89948239182692   -1.57808665506741
C           4.57189659412339   19.27741728807664   -1.01134086858746
C           5.11368715891565   20.56604563242231   -1.04786276457829
N           5.56629675133654   21.62191251462156   -1.07145791378750
C           5.15449372771944   18.17658799389957   -0.43202855008870
C           4.23928054759527   17.08253310095698   -0.54636100550574
C           4.39182044716505   15.85040975802348    0.05294434837659
C           5.66487861215925   15.28790240113489    0.53102084553715
C           5.38798075065040   14.13642031890628    1.19942381796466
C           3.95374595183177   13.92713178595143    1.18202045994148
C           3.36324294128764   14.93829790808425    0.46356824033613
C           3.30425229747854   12.85239034682260    1.79360147619039
N           2.77221403639246   11.96173093854831    2.28880668490066
C           6.96615435146800   15.81154944400884    0.19445280722025
C           8.03868899646274   15.73716264228060    0.98522165763845
C           9.34536341689580   16.30964349516950    0.61948218574362
S          10.80243090926187   15.17663639793109    0.96670600842688
C          11.03955928047279   16.58174377989357    1.96709434849001
C           9.94368988486371   17.27963945631357    1.61146719512958
C           9.44564787410165   18.58110086116908    2.02955475696824
O           9.97240523907154   19.28300705353658    2.85922103376281
O           8.32333500713848   18.91194832209104    1.35727469887726
C           7.74685122394302   20.17563923581799    1.66370137003721
H           1.06778613735198    0.00530863698416   -2.16189032777232
H           2.56388494619649   -0.96468595557807   -2.05126700378428
H           2.49779585493036    0.97536595317895    1.39748636446285
H           5.20154817862073    3.62793299997461   -1.80615752908307
H           5.18101109191397    4.24976152842719   -0.12369024334622
H           3.99888864745244    5.03854804030179   -3.56500438112018
H           1.36775109188006    7.47403799484570   -1.16352619532734
H           1.51718729790323    6.93668406761662    3.74648230817262
H           3.35493846010549    3.80533295422987    1.40415554366275
H           2.47795047475300    8.53696062863481    0.30458578322070
H           0.42872761081555    8.88045800803219    2.54518141357037
H           1.72308667812768   10.10093218196686   -0.78701761743988
H           2.20929151919462   10.97513205209351   -2.72206900325450
H           1.76244242158395   11.49896133172611   -5.18505519045012
H           0.45639460698455   12.56810717236756   -4.62827392751859
H           0.63615954655454    9.70048258499212   -4.14569218061963
H          -0.55321510264943   10.52997441581812   -4.89769090561745
H           2.79674500411443   13.81664410410229   -3.65834163236189
H           3.67455751907485   12.35452785204964   -4.15524048516692
H           3.45033266715533   13.21861725399905   -1.37169993024943
H           4.79891166842946   13.29801044698081   -2.31233815884067
H           0.79612897737121   14.71666927971054   -3.93947073016398
H          -0.79420916071487   16.54307031272321   -3.53195060759354
H          -1.66274236919451   17.09994297457126   -1.26625066948903
H          -1.65058891745543   15.28451606835781    0.39862060339471
H          -1.12318929381149   13.20885432105332    1.89021899784348
H          -0.44736741225771   11.03110761168680    2.79923203395584
H           0.60642137526009   18.17134948216275   -2.39703861133706
H           2.21065899127434   15.67340201155935   -1.67906931653790
H           2.67020170781286   19.56490710531298   -2.14118414442713
H           6.07617927064750   18.16758566240124    0.11722256938051
H           6.09097782379270   13.45427780981115    1.63811584713924
H           2.30482266979590   15.08616834147273    0.35685002214166
H           7.04980409658723   16.30238102004459   -0.76727996931479
H           7.97471240156875   15.28934946676203    1.96678858519656
H           9.38114398065073   16.65117000106408   -0.41477991895968
H          11.85492310257557   16.76892294750487    2.63764050869557
H           7.34034405970345   20.58339475792572    0.73963399122698
H           8.50772328182036   20.84114267796820    2.07511384271810
H           6.94877856425490   20.04346738844676    2.39748492694946
