97
 SCF done       -164.118695645965          0.001849774031
C          15.98548159593199  -11.24865704679881    1.76274870274096
C          15.80121618092278  -10.63781669890928    0.58948992963312
C          15.11742978823723   -9.39986448044913    0.40309685854725
S          14.43190002359107   -8.53104652034952    1.73730863388747
C          13.79114171553199   -7.27110173700080    0.72542052878871
C          13.00468042384099   -6.27503736856900    1.34885200339499
C          12.15424049784865   -5.43927796561466    0.69446547454563
C          11.35781777967345   -4.40666472080623    1.24512081678770
C          10.45937908178767   -3.62825872957377    0.47302811731868
C          10.07261704348894   -3.73819030298380   -0.87061165565701
S          10.20452821090341   -5.24724901373020   -1.75354004110795
C           9.46110849710310   -4.57436443647255   -3.19031166201965
C           9.40373064777326   -5.41637838221752   -4.31426175685187
C           9.05942887903660   -5.04579011804427   -5.58499814463559
C           9.03667643816335   -5.84996016865520   -6.74048113411520
C           8.90318663942775   -5.30781985032191   -8.03800234154150
C           8.99168282349874   -3.95016210442089   -8.43467955120573
C           9.71915889952972   -3.03702167994356   -7.73438781631895
C           9.69763747662110   -1.63219167931567   -7.84483206261069
S           8.75184642730356   -0.75780485395812   -9.01219505058228
C           9.14629792057367    0.75342677800305   -8.31684065824840
C           9.96369410978156    0.62467969188938   -7.21669644065162
C          10.44053555128371    1.63660663715225   -6.34888041844063
C          11.19458520525440    1.32003320705709   -5.26073033860251
C          11.67401399078659    2.35967162328871   -4.29775709133999
C          11.54339979441543   -0.04848319379654   -5.01394915499374
O          12.29688615618974   -0.25194071114237   -3.88569799725415
C          12.72347760875855   -1.55827747361918   -3.59068744469358
C          11.11972486508140   -1.04998335227015   -5.84426019006992
C          10.30170653990847   -0.73902672413286   -6.95059608128880
S           8.60795771409277   -6.54562227183024   -9.22459312692505
O          10.16590504529263   -6.82268793524058   -9.93972151359329
C           8.65891655031224   -7.78036616536604   -8.02208956935978
C           8.92807890620502   -7.28421009772563   -6.77842296176769
O           9.00778825188410   -8.03109479943947   -5.66345315923052
C           9.10948391758858   -3.23776838191171   -2.95650941437774
C           9.45948897727931   -2.77644098076063   -1.68847448598541
C           9.26539630059433   -1.35070886864904   -1.26693110804457
C           9.04161163956661   -0.44521775693252   -2.48510814308480
C           8.70271300364449    0.88758286383554   -2.04732150981566
N           8.43523445126675    1.93357198200425   -1.67325350611941
C           7.92510058020743   -1.04695734582575   -3.35741908663062
C           7.57804680308449   -0.14593297178297   -4.43259701561783
N           7.33076812182946    0.54792886581095   -5.30600601528671
C           8.41367506272988   -2.37054521306413   -3.96392423331165
S           9.69806723300242   -2.38175983107854    1.46749185950925
O           8.12952725791233   -3.04854475848980    1.63150459522015
C          10.57791025095069   -2.86953314216381    2.84657547147075
C          11.40815822489821   -3.93752308232574    2.58895564624347
O          12.22614060852227   -4.47750908449504    3.51293188869183
C          14.15145430911068   -7.49720336587352   -0.61422031118002
C          13.93234632680304   -6.67881226505291   -1.74176327651364
C          14.32710082841196   -7.06738777782209   -2.98944492355013
C          14.07315362348834   -6.21726525760503   -4.19434008394525
C          15.00348248193935   -8.31248962446709   -3.16267485350510
O          15.34044306667051   -8.59786566394283   -4.45537484255424
C          16.01467190119460   -9.79977574595624   -4.72079085851551
C          15.29207926292099   -9.10538295628084   -2.08500599556477
C          14.88222550365908   -8.71312166915746   -0.79160883160912
H          16.51237320419116  -12.18306374150558    1.83637638375083
H          15.61305490600604  -10.82455854685212    2.67960268243936
H          16.18757066215988  -11.09380583682117   -0.31265119871784
H          13.06571656948732   -6.23815063725089    2.42638397525956
H          12.04073125840045   -5.57647556005906   -0.36586647133672
H           9.73496764226860   -6.43090207119153   -4.14323470253646
H           8.78991393020091   -4.01999981337486   -5.76963100439874
H           8.45782310958694   -3.64579234946537   -9.32647955139909
H          10.37024358295879   -3.41538795236223   -6.95935164969559
H           8.73979705710096    1.65074467273797   -8.73679561040500
H          10.17524506151357    2.66322551142290   -6.54909423658638
H          11.47680890448990    3.35641564522464   -4.68149946335342
H          12.74109681298301    2.24346231478246   -4.11753162889762
H          11.16439271648277    2.25014723916450   -3.34007618950955
H          13.34093737531171   -1.97205668113115   -4.39459791826999
H          11.87846238545360   -2.23178138447365   -3.40329078456817
H          13.32177576361473   -1.47607757977129   -2.68422903706321
H          11.39913869029487   -2.07698725420997   -5.66791309494998
H          10.29477558683207   -6.28665171223532  -10.72655846448075
H           8.45499366451544   -8.79938685385046   -8.28621862746297
H           8.85378766556313   -8.96125221738918   -5.87115744660840
H          10.14697263233747   -1.00188355197899   -0.72064639383467
H           8.40454255332847   -1.26845884811974   -0.59334646556390
H           9.95974263437119   -0.37759646482884   -3.07826340698366
H           7.03570667267237   -1.21266609902957   -2.73688421265231
H           9.09866584226988   -2.13390093295124   -4.78543512653274
H           7.55971499185482   -2.90792513293320   -4.38506531583623
H           8.13806605059911   -3.99996462639984    1.77850824755433
H          10.54387145075553   -2.28357386679317    3.74331400554015
H          12.15917948560581   -3.98610088927192    4.34104356661408
H          13.46885443386359   -5.71349751032337   -1.62745615157758
H          13.56141516681301   -5.29925187065973   -3.91583113946909
H          13.46099381497327   -6.76196192934623   -4.91243398886033
H          15.01215004188248   -5.97126802127092   -4.68869928314376
H          16.15772290393322   -9.82658650538841   -5.80078035022158
H          15.42433903801556  -10.67011116619383   -4.41215570574642
H          16.99185709234340   -9.83229760746198   -4.22615803701799
H          15.83370161798507  -10.03008548208934   -2.19887086853954
