124
 SCF done       -189.039691809073          0.000666869381
C           4.92766852124357   -8.41455173519129   -1.63488815269951
S           3.51713661060531   -8.77261578842726   -2.53206752370575
C           2.61787003529888   -7.50462175495340   -1.77040957659940
C           3.42044187534396   -6.81796868016607   -0.86101945638074
C           4.75293381920230   -7.33839873035012   -0.79558769804333
C           5.70831143194866   -6.69298578388437    0.02867958705670
C           5.37759743011724   -5.57199132876732    0.72413613088339
C           6.35621851761561   -4.83614635419836    1.58055747195258
C           4.04749618492235   -5.04204228863701    0.62986809997383
O           3.84607770800905   -3.90258125390004    1.35364487445734
C           2.59002799779311   -3.27984354132440    1.28393341290007
C           3.09555452752729   -5.64795716373101   -0.13896403299867
C           1.26877374660584   -7.16133008560710   -2.10435410021325
C           0.40139892435902   -6.80444473793546   -1.13270547040981
C          -0.80195871365442   -6.06341653654791   -1.28420693929390
C          -1.75127187567729   -5.78648472424102   -0.32008948456299
C          -2.67813747822465   -4.76420700611411   -0.73515775014829
C          -2.49210026907054   -4.40662997858567   -2.09444295839206
S          -1.09334964751812   -5.19520414756387   -2.77776796130544
C          -3.29066373744137   -3.51333456316415   -2.78251973264032
C          -3.01450225625955   -3.15338354779569   -4.21153994493720
C          -2.18309504894249   -1.87194361621302   -4.29457026264935
C          -4.32485810397073   -2.92002413625939   -2.05225399452601
C          -4.44274507727942   -3.18857902067621   -0.66972291834422
C          -3.62420846291035   -4.06515267513205    0.02755889509367
C          -3.68990113531583   -4.07870189903191    1.52768816718644
C          -2.98663987555643   -2.83737833769220    2.08458001611351
S          -5.74575708138297   -2.26186252653167    0.03605242793797
C          -6.11909600286789   -1.56524444174203   -1.50268426675540
C          -5.30771786786937   -1.98342485588442   -2.49395191731592
C          -2.02839993246380   -6.65610543409707    0.81177550208384
S          -3.66484218579446   -7.28449384880528    0.84325680088356
C          -3.30338823403792   -8.24901435782061    2.21505010753949
C          -2.01006560424100   -8.14725407239333    2.61076548862779
C          -1.48222460641960   -8.86279853741718    3.81276679675276
C          -1.25727563575807   -7.23941512643393    1.79198527290203
C           0.16502890115292   -7.00944582731367    2.00358689051711
C           1.00584687341634   -8.04528983176735    2.18376665361225
C           2.41879829205866   -8.00851260778096    2.39214704363506
C           3.11511432106774   -9.16413939769275    2.42320237545089
C           4.50661485217393   -9.35295887881868    2.65643611495324
C           5.13342537941547  -10.57926961712726    2.66972432387692
C           6.52953114097556  -10.50564602400395    2.97374103691822
C           6.93393486626286   -9.16049464492080    3.19265229198844
S           5.60119451447776   -8.04414390287666    3.01204337690105
C           8.22268423633836   -8.78713811961775    3.52907717244526
C           8.62334817436673   -7.35038139368035    3.68472158378135
C           9.44857849501658   -6.88619822740998    2.48287560600207
C           9.15336760469967   -9.82014266018012    3.67509533603600
C           8.75744992188908  -11.15648391361245    3.44144121630451
C           7.47401166773486  -11.53702516752413    3.08561710471373
C           7.19467735538904  -12.98426150145884    2.80931442281435
C           7.49939635720589  -13.32943648681167    1.35031022326745
S          10.09686691623759  -12.25590179513681    3.67415319094152
C          11.13672297461071  -10.93871243368207    4.09306284832750
C          10.52789115765886   -9.73716999985020    4.05400226104498
C           4.37030091121931  -11.79655232894111    2.41490849758209
S           3.59417363241813  -12.65097092958362    3.70330981488063
C           2.92108490455447  -13.83418275581336    2.62189929222044
C           3.27352411426965  -13.54788003844748    1.30656494575900
C           4.08617555042530  -12.37407746525942    1.19272728732842
C           4.51274489724230  -11.93531839854353   -0.08553326566467
C           4.17305130065348  -12.63325351108818   -1.20097621325588
C           4.60467349966534  -12.21848124047918   -2.57036868926314
C           3.37011110817259  -13.81903275025440   -1.08075842446935
O           3.10444171298272  -14.42868147075210   -2.27030136952321
C           2.32333751643331  -15.59557204538850   -2.26765145637834
C           2.92947482998181  -14.26092266758357    0.13475896498702
C           2.12630296041851  -14.91964407537661    3.10856532967977
C           1.81640431465306  -15.13707696126441    4.38640197753488
H           5.81777851768798   -8.99243321907620   -1.78619987537653
H           6.71093617986156   -7.09178615447407    0.07441513554625
H           7.35227612513606   -5.25224118580561    1.47514396277123
H           6.05162293503198   -4.89572563063157    2.62466963862422
H           6.37258372688743   -3.78299864673238    1.30605221353990
H           2.66400810367478   -2.39115133314384    1.90904706817649
H           1.79615543625696   -3.92727386229159    1.67205367437653
H           2.34128514880489   -2.98353488991532    0.25949907519094
H           2.10552137763384   -5.23725192854820   -0.24349211350076
H           0.98517812309956   -7.12901592003569   -3.14867358954605
H           0.67847152946305   -7.02028088285313   -0.11177159798991
H          -3.95446781401642   -3.01636650584796   -4.74874760239671
H          -2.46556917815256   -3.96938278113898   -4.68707401667883
H          -2.70978734453472   -1.04485177417218   -3.82340606791400
H          -1.98576769626540   -1.61487067508713   -5.33245141407401
H          -1.23212592347405   -2.00933125601072   -3.78495641397411
H          -3.20448368809940   -4.95818256564709    1.94185270519548
H          -4.73551752977678   -4.07580204321393    1.84432099337703
H          -1.94303496923104   -2.82678812224434    1.77564263083769
H          -3.02733571897770   -2.84255592161075    3.17111876859436
H          -3.46185373136118   -1.92807199089101    1.72564937216548
H          -6.93515316934742   -0.87166280040456   -1.56467932719132
H          -5.39749638572829   -1.64802205655109   -3.51135653093164
H          -4.08011896853007   -8.83992272654573    2.65901347935192
H          -2.27447110785827   -8.98421612594851    4.54861535297572
H          -0.65994748391879   -8.31037055504791    4.26106578506145
H          -1.12092982701386   -9.85609262046967    3.54652203426867
H           0.52293022566973   -5.98751342338889    1.98607310468066
H           0.58828582491534   -9.04211232500216    2.11739979172289
H           2.91464979424394   -7.05629121341479    2.52035975626078
H           2.56955419944584  -10.08742925681773    2.26355816392984
H           9.20865126680330   -7.22561360741194    4.59823577769610
H           7.72554739221537   -6.73553109978767    3.76833569222660
H          10.36928768767866   -7.45876307381849    2.40199605177974
H           9.70202394888268   -5.83300901159367    2.58067918177098
H           8.88504589484382   -7.02785946329097    1.56326995835989
H           6.15816727306577  -13.22754432952887    3.03001300116008
H           7.83177956885330  -13.59179172474950    3.45783888641880
H           6.87242643346702  -12.74515735688300    0.68095638567549
H           7.30730815454896  -14.38397678231544    1.16820132114595
H           8.54276333929965  -13.12222514522593    1.12284997388601
H          12.15655882325690  -11.15425954125921    4.34681230856455
H          11.02680880991803   -8.81668498029091    4.29767974956148
H           5.10319904962369  -11.03288989380321   -0.15314562632481
H           5.26357380007421  -11.35672178628791   -2.52455357446638
H           3.73550935257691  -11.96658263080702   -3.17593701430321
H           5.11969442257729  -13.04054350101307   -3.06426778853201
H           2.24558049542876  -15.90198287139280   -3.30948697193992
H           1.32019488374876  -15.40742088412028   -1.87099608311414
H           2.79700169204301  -16.39619815847297   -1.68973938271068
H           2.32172573461746  -15.14615721091024    0.22543284712147
H           1.76502057597895  -15.59894726078562    2.34755278174751
H           2.15942929605183  -14.48020060901297    5.16822408226466
H           1.21317163629410  -15.97514699621259    4.68625161455786
