122
 SCF done       -173.751352358423          0.000434664644
C           3.39017434090237   -1.60135658378534    2.05451040301193
S           2.42633335008683   -2.36055162119800    0.87083639012408
C           1.32043690179548   -2.97004760710646    2.05211703060407
C           1.67674322051966   -2.56110504633611    3.32811297388025
C           2.88838946366712   -1.77763949637956    3.32234131908191
C           3.43745197091384   -1.27078773941960    4.53578054029305
C           4.70791251402423   -0.48069468650263    4.50602467187147
C           2.75960621676203   -1.52406398921890    5.68873958181813
C           1.53729181034486   -2.23248341553833    5.69162071992529
C           0.97587691178945   -2.74537583231847    4.55857786681254
C          -0.35295832247747   -3.43249040642904    4.61920006059395
C           0.23982513455584   -3.83218766073847    1.58554701708212
C           0.14677101045730   -5.15018451106354    2.04606897576822
C          -0.86492073089760   -5.95730587360664    1.58058855532434
C          -1.81290896057087   -5.45116212866382    0.67432379746194
C          -1.70376769330342   -4.15852892427387    0.18713908618306
C          -0.66567253691458   -3.36303509631105    0.63458052138738
C          -2.81760855050250   -6.46796191311976    0.44142687687149
C          -2.48723614843008   -7.60384029766022    1.19672287155307
C          -1.17205751207641   -7.39922181371573    1.91960329907408
C          -0.15059460894561   -8.36706504502207    1.27822043368408
C           1.28969087929306   -8.22280011698910    1.75157168041623
C          -1.29966719686828   -7.62587787415092    3.43267485185194
C          -2.44447796437767   -6.82400798874248    4.04214525766702
C          -3.29879773254890   -8.71040529909508    1.19379276426129
C          -4.48453456693765   -8.70540687907234    0.44236600730109
C          -4.79517196488251   -7.56571824658396   -0.31187814692796
C          -3.97457963481952   -6.45518629732402   -0.32103113982743
C          -5.36483016190946   -9.85013342003373    0.47689465055795
N          -6.42212584867716   -9.99395152944996   -0.39798164419957
C          -7.08145150532711  -11.14522182118567   -0.10085117891388
C          -8.16889054895406  -11.94696705818803   -0.44965478886790
C          -8.15920717843286  -13.02117978492249    0.44037534972151
N          -7.09400176942144  -12.88604888754910    1.30748451437139
C          -6.42786667249987  -11.74208815469605    0.99718931876624
C          -5.34940824862115  -10.92957299335126    1.35632173668292
C          -9.09984524107309  -14.08941872753634    0.49227982781512
C          -9.05124311598380  -15.16042829725939    1.31032720392631
C         -10.03297600586666  -16.21820552007389    1.37623030763520
C         -11.30029829910109  -16.10453492155796    0.78462788718892
C         -12.19535617445250  -17.13897426896331    0.88993688235526
C         -11.86058875454441  -18.31772514767610    1.57711058887327
C         -10.61463511311444  -18.44262752706692    2.17233080293207
C          -9.72157871019803  -17.39437700256614    2.07221607792601
C         -12.99179608528142  -19.22207527359548    1.51932277364095
C         -14.02660041064584  -18.59485411924821    0.80575751421409
C         -13.60453122116018  -17.21788505929241    0.35051207094600
C         -14.50081229053793  -16.12850904147323    0.96872380273509
C         -14.50233335324134  -16.15902710415398    2.49251435638370
C         -13.63088643779070  -17.09877795575521   -1.18379407794505
C         -12.76044847603139  -18.14404432324309   -1.87062581738762
C         -15.22426903979297  -19.23482711407084    0.59794377453922
C         -15.41084175144063  -20.52009414099384    1.11863305080845
C         -14.36781120883444  -21.14820782792578    1.79974004257704
C         -13.16095139092476  -20.50690643917277    2.01077837423521
C         -16.66525770753166  -21.22303445756494    0.88125194561001
S         -16.59336243729329  -22.73531859381957    0.04563457006807
C         -18.29163623721785  -22.87357510961002   -0.00611825859041
C         -18.91704207633378  -21.81575296938420    0.61088154826589
C         -17.97769305742830  -20.85986115749701    1.14510538961268
C         -18.46822963044088  -19.76167916715373    1.91466803325854
C         -17.55033777012935  -18.81863937823801    2.62934029685010
C         -19.82104584379959  -19.62006054211394    2.02679844665976
C         -20.73770340998646  -20.51730643120760    1.43501932784330
C         -20.32125492163285  -21.61749936730686    0.74991256457060
C         -21.27578624227280  -22.60862474303377    0.16189791034244
H           4.27027250091662   -1.07018894168137    1.75391279303799
H           5.51513333250868   -1.07192138767818    4.07434574251502
H           4.99433925576212   -0.17977819337754    5.51061912802684
H           4.58549912998358    0.41385991477756    3.89573147784826
H           3.14229815700703   -1.15649169927376    6.63030939083579
H           1.02505621465791   -2.35544252322643    6.63559797587104
H          -0.85746253403517   -3.18688737120192    5.55135446228026
H          -0.23692275516186   -4.51419938556391    4.57307623830609
H          -0.98361813574067   -3.12930400611680    3.78572568285828
H           0.87588414068376   -5.50766720656896    2.75752943556112
H          -2.41965055097177   -3.77396188334393   -0.52396561725301
H          -0.56178906199538   -2.35123228701248    0.26909865869368
H          -0.18072750945060   -8.21423471254834    0.19606914072630
H          -0.49151068510376   -9.38629175911780    1.47515083923303
H           1.69043662617934   -7.24928087352306    1.48320278786821
H           1.90370315922479   -8.98338045491657    1.27340100219952
H           1.36897481107122   -8.35432062072605    2.82756919749003
H          -0.36463415918544   -7.33914304070251    3.91669254367109
H          -1.46125633998997   -8.68959447472577    3.62041796737965
H          -2.32433162405059   -5.76387656311991    3.83035141277702
H          -2.46786302954380   -6.96037635913636    5.12123949084895
H          -3.39917782384380   -7.14615597777709    3.63287267153774
H          -3.03728557701173   -9.58471830475981    1.76859300589739
H          -5.70919763905592   -7.53239399179643   -0.88711929195683
H          -4.24063498540076   -5.58707592460205   -0.90611105129201
H          -6.62576319917263   -9.37205969097364   -1.15966971721352
H          -8.88251952391942  -11.79572338638244   -1.23513497389069
H          -6.87987818257944  -13.51979244548948    2.05637889159034
H          -4.65982393447241  -11.08403890529994    2.16133326277174
H          -9.91079410247352  -13.99178794794252   -0.21531862197780
H          -8.20645131807706  -15.28207123465446    1.97753926050942
H         -11.57528415965587  -15.19899543456651    0.26584628287376
H         -10.34630824280017  -19.34067250282536    2.70934144968193
H          -8.74808932600497  -17.48164173295512    2.53514891694430
H         -15.52027133107004  -16.26384543408791    0.59949386391474
H         -14.15133325485926  -15.15139834448563    0.62800279547064
H         -14.83718589661012  -17.12706807122266    2.85817526295248
H         -15.16932449086987  -15.39330420233490    2.88262136408610
H         -13.50252139791882  -15.97507087815797    2.87920374773070
H         -13.28670071568005  -16.10045882389586   -1.46317067913606
H         -14.66288818344901  -17.20379203872925   -1.52612093608208
H         -11.72347747192724  -18.04373340527190   -1.55777578048482
H         -12.80875386507793  -18.02195797880155   -2.95043255308141
H         -13.09797722904500  -19.14762978691079   -1.62142765401637
H         -16.01546604018312  -18.77573419549148    0.02304752643355
H         -14.52008173757644  -22.15041310387818    2.17484653141252
H         -12.36608718933246  -21.00310852949803    2.54753973742409
H         -18.73542752451200  -23.72086635678619   -0.48804986583215
H         -16.71413861161328  -19.35564046266199    3.07271091808372
H         -18.09184413275202  -18.29697647633757    3.41578579622595
H         -17.14348339831187  -18.07228303984677    1.94880467222116
H         -20.21839428067201  -18.79826418802458    2.60594806419254
H         -21.79454920316086  -20.32984834906910    1.56176845162910
H         -22.30335412877315  -22.30355868737451    0.34316713752103
H         -21.12150491094223  -23.59326781717616    0.60273426298392
H         -21.12124318668704  -22.69590075268954   -0.91329194289563
