108
 SCF done       -176.291786937479          0.000436751930
C          -4.87056207401490   -9.46904388440964    1.68378435176026
S          -4.95897268763889  -10.54548331162197    0.33098827693137
C          -3.25669766237482  -10.37962974689208    0.06007542100671
O          -2.62094047140885  -11.01296662903542   -0.93954457889505
C          -2.65649736676652   -9.53319988234209    0.97276566198096
C          -3.61739649498958   -9.02099907638153    1.89744989788303
C          -1.25741286338118   -9.23261894200836    0.91085743530993
C          -0.60257525165173   -8.37972739125830    1.72858355205566
C           0.78375846935417   -8.05713103315522    1.64291080775144
C           1.56176747713559   -7.65496320202271    2.69127536991754
C           2.93467714909709   -7.62203699164895    2.25884245243408
C           4.01133912469898   -7.22835550916895    3.06206887556699
N           4.89018684018960   -6.90562148695589    3.72765853410936
C           3.00885771369817   -8.02759594474673    0.94503331309489
C           1.67958828871546   -8.24270419959188    0.47387170684048
C           1.30560299215739   -8.37210251314359   -0.84479700723896
C           2.15683255360699   -8.81859574789192   -1.96718898748003
C           1.44102213131519   -8.63500950065522   -3.11902024804825
C           0.15752277372882   -8.07348864348284   -2.78171948846168
C           0.06487338483452   -7.94377281522206   -1.41733706533463
C          -0.83058995499853   -7.73595174750505   -3.71342058841047
N          -1.64251468639481   -7.47586495698554   -4.48346831125512
C           3.41961295631291   -9.46561701481627   -1.81918501520284
C           4.32202674675297   -9.60956153844823   -2.81643135294046
C           5.61209413529285  -10.23328602468965   -2.71389722108541
C           6.50014797743760  -10.09424094620492   -3.76699642349659
C           7.79290805929011  -10.63666121498851   -3.69144138332488
C           8.86999302808611  -10.60723844893498   -4.57726231874905
C           8.94991137080457   -9.97946885502899   -5.92683991589661
C           7.90433661463250  -10.57287666055846   -6.89218661341592
N           8.37852884280512  -10.42779472541249   -8.25441903188299
C           8.82850067280840   -8.44757686681542   -5.82238470920906
N           9.09785913938233   -7.82133668205874   -7.10806597824952
C           9.95240604425011  -11.31832760650788   -3.94251447118513
C          11.20672060420114  -11.58881420684598   -4.35728005982810
C          12.12024464295734  -12.41835517383111   -3.53330262583063
C          11.64990778169985  -12.66236121248020   -2.13259524323918
C          10.38564133333830  -12.40810317486761   -1.73796800152407
C           9.49110091553976  -11.76539164993335   -2.62119015716718
C           8.17542969575744  -11.36023201679562   -2.48775758310289
C           7.24090470794982  -11.53224198112269   -1.44401086756035
C           6.00497893455463  -10.98102104728637   -1.55694375004187
C          12.14442336116744  -13.82621152013613   -4.10166011483326
C          13.18957996627562  -14.65063899393335   -3.99610672748929
C          13.20108110384213  -16.03184761035769   -4.39711458300249
C          14.30462781069783  -16.69968389849864   -4.83878060166852
C          13.90216315577583  -18.00971791484805   -5.29132364307714
C          14.77731355498129  -18.98584466931246   -5.77846494676705
N          15.50073942139682  -19.77892117568452   -6.18811273581579
C          12.53867171405983  -18.12811060221318   -5.15999999609064
C          12.04188906726066  -16.93422560341191   -4.55140393848255
C          10.76549049684719  -16.75062477967148   -4.05824871858906
C           9.52877281210526  -17.43455351594392   -4.50409379920749
C           8.51547974428641  -17.02094996322653   -3.68011224523660
C           9.05491195791972  -16.10546955991006   -2.71055747798698
C          10.39826454331527  -15.92833175250823   -2.95277865024706
C           8.32549278410843  -15.46015236228441   -1.70646937690892
N           7.73366125405347  -14.90484807829920   -0.89288069551351
C           9.43444846005558  -18.23365359423750   -5.67798350966122
C           8.36992009000469  -19.00853339306460   -6.00040025725032
C           8.28774526414694  -19.81434495715693   -7.16709617733592
S           6.84049083645674  -20.76848050446075   -7.44239303152838
C           7.49392682545954  -21.40148842711521   -8.91426726351840
O           6.81617530622293  -22.26992122064855   -9.68187677282315
C           8.75900905867126  -20.91438069575684   -9.18652432035202
C           9.18728231051995  -20.01706799816718   -8.18370221375876
C           9.49534803467813  -21.31940845118989  -10.36743899091092
C          10.72254722420857  -20.92414504532514  -10.68474048181872
H          -5.76785283641998   -9.24676877076687    2.22492229405233
H          -3.24062765840557  -11.50202299134440   -1.49292431245166
H          -3.36682830315854   -8.34351344036020    2.69251511620821
H          -0.72116832068175   -9.75345239574265    0.13018167349679
H          -1.12256998147523   -7.94266579054518    2.57140172210659
H           1.23707189939994   -7.44132266490884    3.69249992298418
H           3.89653599857712   -8.01830201505871    0.34211002086687
H           1.73826142937813   -8.89237393365003   -4.11812340099956
H          -0.74631882705058   -7.49168498756421   -0.88096330489125
H           3.64090369754040   -9.84997585262982   -0.83444661839255
H           4.09495366824145   -9.17043916757375   -3.77976628673865
H           6.19358485746993   -9.54801732359110   -4.64653140253618
H           9.92768155072685  -10.20520548480137   -6.36396870698815
H           6.92992485646579  -10.09242278329337   -6.71383436109374
H           7.79305913804976  -11.64260108612988   -6.68407320948692
H           8.50061337142156   -9.43794924531255   -8.45109948551478
H           7.70256849806639  -10.80625578342172   -8.90862341156035
H           9.50713109922631   -8.10233724221082   -5.02315753540981
H           7.81170164219583   -8.17722632237095   -5.52907107378098
H          10.06840131424080   -7.96677438321671   -7.36912562716726
H           8.93977785459720   -6.82089901515461   -7.05132796818390
H          11.57064472960958  -11.28297138561012   -5.32848739740558
H          13.13614906634132  -12.00928235914117   -3.54151722739764
H          12.36011556725436  -13.13809580998389   -1.47308606200103
H          10.05050225004493  -12.66128247424427   -0.74316691014553
H           7.51381958948551  -12.11320083176515   -0.57681682575100
H           5.28858517682169  -11.12207156881877   -0.76344350350066
H          11.20542566136275  -14.16361177560993   -4.51331970497482
H          14.13791150232594  -14.27049308761189   -3.63368442478754
H          15.31103874171861  -16.32691588973875   -4.88500959300137
H          11.97446783696796  -19.02443842522782   -5.33313823329402
H           7.47706353302300  -17.28582033909633   -3.74141929799256
H          11.07245256234501  -15.35655151816537   -2.34661305439909
H          10.27460253700699  -18.19983551346265   -6.35489132956760
H           7.52218684581372  -19.05585831000183   -5.33125190347829
H           5.95830466740613  -22.48203364648420   -9.29637418293277
H          10.14467228529420  -19.53183577001046   -8.21315469143555
H           8.95879771266913  -22.00326470351321  -11.01084272209155
H          11.29154595302404  -20.24793542934539  -10.07038517954898
H          11.20486908589278  -21.27070399074360  -11.58166718914019
