92
 SCF done       -157.484161489952          0.000736902758
C          -3.70011545007640   -5.71985310954465    3.73716537825910
S          -4.03568512442537   -7.18937320429173    2.88723381428906
C          -2.51532275579268   -7.09448306051930    2.05789150740248
O          -2.14175740094481   -8.03044386427442    1.17676285609133
C          -1.78706947811137   -5.97747127069678    2.42644906146632
C          -2.50150316709981   -5.20783984312667    3.39786711119201
C          -0.50011945505076   -5.59137572786825    1.93358182174989
C           0.21443925357147   -6.24689114455927    0.99006454522437
C           1.48118990164092   -5.82365083135132    0.51176666383723
C           2.28468013245460   -4.67857115193537    0.96154805680195
N           3.40621893795920   -4.51958989161734    0.32264029117606
C           3.44858741071809   -5.53230730126327   -0.59602677046265
C           2.25511567751166   -6.37602830387963   -0.48836092291467
C           2.29897761566936   -7.42205867901810   -1.47275573414156
S           1.13035296755222   -8.55729333594869   -1.72843536252005
C           3.54312526754572   -7.20967306591497   -2.17851343298488
C           4.21842639497132   -6.02463013796027   -1.61578460654261
N           5.37408020803237   -5.75784450513641   -2.28869615095151
C           5.44006994812643   -6.65535334937970   -3.22709272731083
C           4.32989982715397   -7.61415306972551   -3.23712168382529
C           4.22235385287953   -8.70736226329500   -4.16373684426762
C           4.85956777956310   -8.64511200280234   -5.38821969458062
C           4.75244875483019   -9.71913771573515   -6.28658752239068
C           5.28882054200777   -9.89640773985765   -7.56038747001241
C           6.11050665235696   -8.91287834237697   -8.31883089289480
C           7.47131737157426   -9.49152802403059   -8.75384035934906
N           8.46657148427600   -8.43659990637353   -8.73713155536811
C           5.31812851143763   -8.36390761835857   -9.52128362068882
N           4.21572486973318   -7.55709747776596   -9.03566612141158
C           4.86034222119503  -11.19684818011086   -8.01346092182624
C           5.10738103823112  -11.88092261496855   -9.14885135752248
C           4.48737168905284  -13.20587099351714   -9.41170229410289
C           3.71449656647032  -13.77519424608338   -8.26743395857023
C           3.49183771796722  -13.09246640877431   -7.12793051483349
C           4.03275150929976  -11.79722084608443   -6.95491830352662
C           3.97688704486418  -10.89129915191249   -5.91189146320313
C           3.33975301704328  -10.92710007922337   -4.65130346492659
C           3.46231761851533   -9.86821849605417   -3.81043312294036
C           3.54364155181809  -13.02913329437971  -10.58882559500228
C           2.48750998774910  -12.20886823659511  -10.54126471909942
C           1.55899147736254  -12.01185755040700  -11.61037167330676
C           0.40160470817869  -11.12538902078439  -11.49034984126191
N          -0.34987107934677  -11.06402411688809  -12.55247667284111
C           0.24174788814349  -11.89528887867988  -13.45531077703943
C           1.45527253252467  -12.51094963908648  -12.89321201296104
C           2.05307163342720  -13.37615171403138  -13.88415243897745
S           3.43827082557813  -14.26030325069997  -13.74069825358978
C           1.18860698622095  -13.28268602317652  -15.02880253147277
C           0.08090572448717  -12.36291330774722  -14.73390344929439
N          -0.76323103255820  -12.25277248966317  -15.80044391972902
C          -0.26182993118647  -13.02659329481152  -16.71594778423667
C           0.96985857920727  -13.71810043022735  -16.32321181038865
C           1.68140716879543  -14.60377203260274  -17.16345826832713
S           1.09959572764808  -14.93696507578051  -18.78999408969486
C           2.43225050629989  -16.00148438076289  -19.07559615877736
O           2.59183098210898  -16.64433404545626  -20.24021112033548
C           3.28279807788823  -16.10231856679166  -17.98655072333957
C           2.83628343440371  -15.30270625777228  -16.91670741584248
C           4.46560333236713  -16.93971230620226  -18.00718440849324
C           5.31712519810470  -17.07909524282702  -16.99782099929923
H          -4.42600014808060   -5.34415616263638    4.42934034498483
H          -2.81474538771129   -8.71445295762307    1.07350326399436
H          -2.10867737542746   -4.29789024947263    3.81405912910810
H          -0.10352219023617   -4.68619932045151    2.37335782974913
H          -0.18231460717385   -7.14491546470164    0.54066420309296
H           2.02034518452045   -4.00058449270492    1.75417851794780
H           6.28421781361947   -6.67577627297720   -3.89406689042094
H           5.41247423707496   -7.76479525812989   -5.67679298253355
H           6.32551328392890   -8.06389586750091   -7.66490933062766
H           7.37109142176656   -9.98089271510269   -9.73722917466355
H           7.78737936761487  -10.24991912450453   -8.03172168183863
H           8.23914074742784   -7.71852052112042   -9.41607182484713
H           9.38483092419352   -8.80156255305062   -8.96125176999062
H           4.99984011357371   -9.20472974803569  -10.16229695772748
H           5.96437964106967   -7.71054777909669  -10.11486034291373
H           3.58121761198162   -8.12346638637617   -8.48223225004353
H           3.69359129368492   -7.15507946538024   -9.80546513455984
H           5.72264007256021  -11.48064121770007   -9.94148497982836
H           5.26646299277496  -13.91404044765373   -9.71884093769397
H           3.30203444927683  -14.76034307555254   -8.42182404275256
H           2.91077367952661  -13.52759421923698   -6.32796052489569
H           2.76573416481974  -11.79583545589310   -4.36550701223586
H           2.98768822620600   -9.88654257799024   -2.84315820913425
H           3.75191070407736  -13.60216195017070  -11.48016446130391
H           2.28498811331208  -11.64248097544665   -9.63913284239328
H           0.15547146510768  -10.55668457303915  -10.60968223117678
H          -0.73864067756617  -13.12972182827766  -17.67611266210412
H           1.88516497333467  -16.43122733054623  -20.86113302830379
H           3.34715138970927  -15.23172732648829  -15.97398343596281
H           4.62220085439594  -17.46941410267393  -18.93702323940976
H           5.19019322362580  -16.56610050783665  -16.06029388805850
H           6.17858120508995  -17.71852396184591  -17.08059302363795
