100
 SCF done       -187.691550689223          0.000839220687
C          -0.74645077460542   -7.17244478218536    4.85101107563983
S           0.09872968242134   -8.41588062144776    4.04016862757039
C           1.03925265174897   -7.24098446939405    3.05982184924171
S           2.18049688951035   -7.73563241868106    1.93752579290898
C           0.64005358774411   -5.98357650985445    3.41399152740547
C          -0.35770786509228   -5.92276127912652    4.41952038579174
C          -0.76229538077027   -4.60545130596079    4.78110522226310
C          -0.12093753654633   -3.59938786674741    4.13090468907575
S           1.08742903319511   -4.31999827812534    2.96989617841942
O           2.43967746954308   -4.03566665613645    3.37394927448436
O           0.73838735961832   -4.00218827213934    1.61375597611240
C          -0.42433613707152   -2.22645392028465    4.30558126310713
N          -1.43999670984420   -1.87623019056592    5.09104640024602
C          -1.51286954681982   -0.53476142419858    5.02713862837962
C          -0.47727302616912    0.01721799139464    4.14306554491840
C          -0.56079256787327    1.48983655476057    4.10750811539400
O           0.15595918265521    2.27316651422386    3.52437719603594
C          -1.71381528191407    1.76682672636229    4.98181601882368
C          -2.25953885272079    0.50576878396615    5.52929531721090
N          -3.31344823069295    0.75408215200936    6.34233140808185
C          -3.45622225535111    2.05818171462835    6.32917927294099
C          -2.48976135064338    2.75211608284629    5.50157613066362
C           0.23746568157690   -1.05941315980257    3.67497285212975
C           1.35739426436029   -1.11384163760124    2.80169875854220
C           1.81283142724147   -0.03479756185141    2.12239992905446
C           2.92254030614332   -0.03432220159088    1.21248486451452
C           3.25235772699364    1.16392693889037    0.59007880226052
C           4.31035933930134    1.21032432109128   -0.32345505013494
C           4.80718011211098    2.27302715960340   -1.09106292445417
C           4.26187143945343    3.64042265348223   -1.08475697185229
C           5.27509194530697    4.65047635770949   -0.44043675701962
N           4.68943338955409    5.91337016927822   -0.12641226733417
C           3.81655960520609    4.14989748775391   -2.46915339101351
N           2.96069724278404    5.30540462268981   -2.28820693702715
C           5.89978710224407    1.74306630319787   -1.87595361514718
C           6.73815172540703    2.31786786296643   -2.76148649876401
C           7.70534472951425    1.51234367513923   -3.55637968680593
C           7.82104350653721    0.08051817282237   -3.13484326352481
C           7.00547857963889   -0.47185023787479   -2.21308224352340
C           6.02023472407054    0.31070172809128   -1.57147359825730
C           5.05555227555246    0.00246621814137   -0.61967827571830
C           4.70969989051514   -1.20149668663824    0.02816674167654
C           3.67670417192755   -1.21374187138947    0.91739096944875
C           7.25334833001189    1.47306113810494   -5.00303184369471
C           5.95899547329774    1.54573336628919   -5.33520934391308
C           5.45623617993714    1.57444205019869   -6.67350288219961
N           6.20901922879484    1.41439952274967   -7.74429726626624
C           5.38892262575058    1.61150909145793   -8.80330170372392
C           4.02800876853868    1.94336953649755   -8.37232252601781
C           3.15883273691042    2.18990526446597   -9.53228432323284
O           1.99391514489068    2.52449660476751   -9.54162946316491
C           4.06984446075922    1.95218891549142  -10.66952680136739
C           5.42164275548925    1.60821183011382  -10.17821540286083
N           6.26630930468619    1.38997624640315  -11.21483706458617
C           5.54022954660416    1.56824205934349  -12.29182854659791
C           4.15864086441199    1.91864619277586  -12.02346715812343
C           4.04476679042305    1.89922440395786   -6.99788368505959
C           3.04617489173690    2.14643788496292   -6.02702622459377
C           1.83341217310859    2.71381371353235   -6.26818745885926
C           0.94617528621303    3.04595873502879   -5.21790160686688
S          -0.14520905645810    4.40370596630523   -5.38872051709038
C          -0.58129185353316    4.37756377613726   -3.65924032855595
S          -1.58928417329489    5.50533819896170   -2.96047779262823
C           0.05947660843979    3.30700863209401   -3.07032454705602
C           0.88532303507320    2.55109545256204   -3.90930016084610
C           1.43849097012418    1.36810648478433   -3.27954039271231
C           1.16840851208651    1.24670491392519   -1.98176075748920
S           0.21326653387796    2.66269591470535   -1.41117306533476
O           1.08109963479716    3.54378371303006   -0.66341975428952
O          -1.01876618635069    2.26613701515518   -0.80852133871895
H          -1.47870864286111   -7.41454054590650    5.59627252472086
H          -1.52751995632254   -4.41354317832043    5.51720348108370
H          -4.23920478690412    2.52361231278723    6.90243357577518
H          -2.43783915672919    3.81308466390324    5.35824101413528
H           1.83997507562744   -2.06844682914593    2.70002280955334
H           1.31280990747920    0.91676591217943    2.25071227662875
H           2.67448717243706    2.05022546446130    0.80762001797732
H           3.36407030548403    3.64677490516664   -0.45866866113189
H           6.10072638104170    4.81446427422521   -1.13771312734192
H           5.67536974092384    4.20524650311208    0.47364078657382
H           4.21061154614196    6.29847902389004   -0.93745247729307
H           4.02719657846347    5.84405328809658    0.63694999073439
H           3.30997718048995    3.31911366296987   -2.98996008612968
H           4.67470694545835    4.45544253860732   -3.07542880212127
H           2.14746414745558    5.04210376374799   -1.73512716218602
H           2.64361989476719    5.67447675673504   -3.17717865327754
H           6.69760880524272    3.37251874498277   -2.99057162898205
H           8.69357574735600    1.98836390487005   -3.52651795574598
H           8.56849701154642   -0.50646198913352   -3.64476584660446
H           7.10083634617587   -1.51439657656826   -1.94874900960199
H           5.26207113952560   -2.10403411795546   -0.18489015886281
H           3.41464662005281   -2.13702082228754    1.40897820587068
H           8.00598404934838    1.35505196985224   -5.76728338427219
H           5.22456200404487    1.64703112712763   -4.54825388407806
H           5.97955919220552    1.45592276693240  -13.26777565719277
H           3.40735394253605    2.10406508817704  -12.76535328095870
H           3.31153961112074    1.93215813365740   -5.00170402971505
H           1.56989198326303    3.01957958310465   -7.27180604794205
H           1.97514794730274    0.63041732642174   -3.85670674885613
H           1.43670515537046    0.44401688085202   -1.32553345741192
