75
 SCF done       -165.325887686654          0.000606892873
C           2.75008350915274    4.73257909876878    5.71806980619027
S           3.31842769272313    5.75924495307924    4.47265129832253
C           4.08959176574210    4.39509344881190    3.60449647443213
S           4.84842593420204    4.59570780148281    2.12733255928410
C           3.88394775139486    3.25684476940496    4.33803018385608
C           3.11924278069003    3.42586681806417    5.51068766253858
C           2.79452394452971    2.20566314385339    6.20508549089340
C           3.19194784769404    1.08329464266484    5.59267183085399
S           4.30904378833234    1.53057789838141    4.20226222841907
O           4.00929701557245    0.96605024613061    2.91930388425289
O           5.63676892641052    1.32132953451863    4.70506939456777
C           3.07633989820348   -0.28290752172063    6.04521300063234
C           3.44604742739895   -0.69730832581985    7.29191113514684
F           3.87854452809919    0.08456067405569    8.27649102215299
S           3.37395481666395   -2.40919589519965    7.54327690124214
C           2.80979067516292   -2.57473225087959    5.91791280048737
F           2.51090353122153   -3.78223306590072    5.43940482864357
C           2.67262926950079   -1.40064859233675    5.23044851762181
C           2.18535711005067   -1.30906558530636    3.88188715939404
C           1.70172236511730   -0.17053669048697    3.35320586807092
C           1.43732644316826    0.01295838048060    1.96947269914086
S           1.37883954005151   -1.32758457739116    0.87877384242180
C           1.34932448341396    1.22194677928117    1.29477771818247
C           1.44773914907299    2.53383124569674    1.95486724333607
O           1.50285144381641    2.69584219771117    3.16914948581720
C           1.49017873740704    3.63005671217556    1.00826556822724
C           1.64502029178593    4.98294858171956    1.23664027397055
N           1.65395800183187    5.62536004036502    0.04807228736756
C           1.90385953762153    7.03433143524854   -0.12336131628794
C           3.40278170055769    7.30993824090116   -0.21767179371414
C           1.50963373608415    4.72716672076984   -0.95373507531213
C           1.39786397870286    3.46795879269840   -0.40427814295486
C           1.20833987098105    2.18879036557776   -1.06635647578827
O           1.04700928825369    2.06574253443157   -2.26796070308744
C           1.24391212860319    1.05719401811356   -0.11564395810306
C           1.23151155823507   -0.27350056730085   -0.50588332622297
C           1.15129355609241   -0.81211241709796   -1.82115596994182
C           1.15802821826182   -2.14564483303530   -2.02704959599479
C           1.11627730938465   -2.85595953543099   -3.27104212928029
C           1.12289380411910   -2.29862093602935   -4.52035675010739
F           1.14150240721261   -1.00561733806041   -4.81630460125429
S           1.12208419768763   -3.43367289606511   -5.82877271192676
C           1.11510672708330   -4.70939235128725   -4.66950871672004
F           1.09985436460178   -5.96267279950233   -5.11620748528416
C           1.10391924456901   -4.30746838224657   -3.35598113809734
C           1.06830422182221   -5.15910621412306   -2.20658388439926
C           1.13623942711938   -6.51400154104226   -2.19672435675277
C           1.09038327365947   -7.32009828551429   -1.03289305045153
S           0.80280486732971   -9.02806299372275   -1.25112952203447
C           0.78915205916069   -9.34007179036378    0.50065291082626
S           0.52877709563831  -10.84608062177704    1.15619064132178
C           1.02964369566534   -8.14487400518438    1.14862052264197
C           1.21178532966454   -7.02465224869744    0.33655074806864
C           1.54230510550007   -5.82081913927318    1.07879184015401
C           1.56856483340390   -5.96461395950905    2.40143661565096
S           1.18212666557625   -7.66118284723738    2.86870382646995
O          -0.08815893809229   -7.73285268304631    3.52716600744888
O           2.31216256017172   -8.28623064864821    3.48655142757014
H           2.16624236601561    5.13851609416357    6.52066398383311
H           2.21029473983893    2.22531191985129    7.11223746441515
H           2.25326176455047   -2.20826903830341    3.28297185782997
H           1.58481670723837    0.71392916765262    3.96153419800905
H           1.73183635721939    5.51383456359751    2.16382131898840
H           1.47826844677737    7.56805233675352    0.73020498932460
H           1.39983458420201    7.36842210582329   -1.03395806218689
H           3.91019333446215    6.95108162993683    0.67445348259495
H           3.57854745942784    8.37680038823673   -0.31910933276831
H           3.82765043974466    6.80087779927948   -1.07900335901472
H           1.49242591781347    5.01850576984413   -1.98515375846375
H           1.09052750878014   -0.08962126515361   -2.62204924513471
H           1.21395419797780   -2.76816414656209   -1.14470083382239
H           0.94429674678291   -4.65284159977659   -1.26405720248717
H           1.19143510339276   -7.06386591408502   -3.12486969613767
H           1.77969416892358   -4.89472440015170    0.58047841196542
H           1.79943966620038   -5.22509294559883    3.14181078236536
