74
 SCF done       -144.743342487369          0.000383472909
C          11.81317483117397   -4.23421313170460    2.31494836608722
C          11.70982044636984   -2.96752008593365    2.72240869335496
C          10.50478281739322   -2.21812086454913    2.92024100957291
S          10.61426484167164   -0.49304673189235    2.84125508336585
C           8.90702136353342   -0.26419274365504    3.07232669468818
C           8.31477031716999    1.00228401156829    3.08799126992173
C           9.01005793715691    2.17041833375361    2.88616341405089
C           8.52301102233404    3.47529166762925    2.90027756590877
S           9.63274753452881    4.74358635476499    2.40935703231746
C           8.45520711572803    5.99932388085394    2.59436603285926
C           8.72655237248566    7.33539877672471    2.32755159684923
C           7.86029866669143    8.44407302015206    2.45641399382099
C           8.52735435542641    9.59744544804203    2.09185658345039
C           9.85148717063629    9.29025139141434    1.70666726249788
C          10.87791315792301   10.10819763712585    1.25335626978104
C          10.80324017339452   11.48475580611064    1.15228029643716
C          11.78252287095169   12.34123262142754    0.66735162325871
S          11.54586005522211   14.06298275926870    0.88492147118177
C          13.06718142763058   14.49262050597470    0.16602333892659
C          13.47209080215700   15.82803596769883    0.08232619241913
C          14.65986237491821   16.23303233186259   -0.46697298990748
C          15.08425803931828   17.56540912053698   -0.54970388672135
S          14.14277582498253   18.89713570545882    0.06557358941221
C          15.30621801210580   20.04924632397500   -0.40543592533796
C          16.39967292560834   19.47178337013321   -1.02091577058488
C          17.54416058534393   20.12241578505430   -1.53593556104876
C          18.51871021624275   19.36508455504995   -2.11182548013810
F          19.61832579162206   19.95179616740469   -2.61211313072998
C          18.40195046147596   17.95610074582634   -2.19936838751632
F          19.39554060865822   17.26355953129778   -2.77984115996478
C          17.30940249359987   17.29768079862550   -1.71041053151747
C          16.28306259669825   18.04556127408284   -1.10911295631207
C          13.73693239350717   13.32137751172976   -0.26233877600598
N          14.93093286811826   13.31607092390818   -0.87339289907857
C          15.38805101638331   12.14499135044835   -1.23541813932272
N          14.77236175928441   10.97022107592231   -1.10602945578211
C          13.60344751785962   10.94879132074029   -0.50950108408553
C          13.01436576426152   12.11580087924187   -0.00083597826874
C           9.99644352897066    7.84642177591868    1.85083082612831
S          11.34164673253912    6.95643191744233    1.53238899112946
C           7.22358926679099    5.44666685796354    3.04283153846642
N           6.12446171617664    6.16737859013343    3.28080929791785
C           5.07960455038804    5.50353028373605    3.70764837587199
N           5.01533645879404    4.19752418906039    3.96811306865908
C           6.08459312719692    3.47244946665397    3.74337169470515
C           7.26449720305745    4.03106692924625    3.22716114214772
C           8.27501318331474   -1.51582468697815    3.23939499352762
C           6.90891909414868   -1.74365533706446    3.46789923303230
C           6.46896253943181   -3.02613358815261    3.64332517129267
F           5.16551215351969   -3.26214013390401    3.86150630116334
C           7.37024354435932   -4.11175716623202    3.62176254501644
F           6.90122144040633   -5.35092203992088    3.84275885694265
C           8.70267134591542   -3.92414492532955    3.39178709516313
C           9.18395812858482   -2.61840736853013    3.16518353962412
H          12.77844680376466   -4.69309457864810    2.19388778947893
H          10.96181586961620   -4.83791784843552    2.05855303543143
H          12.61619523765871   -2.39593474973660    2.88368396479449
H           7.24936502590992    1.02986157760107    3.24971629853408
H          10.06780201597850    2.08195871694481    2.66329089445438
H           6.84308992800984    8.36840797563654    2.78992274506851
H           8.09818333321591   10.58240437690517    2.09656186325802
H          11.79776079704524    9.60200073039803    0.99879231325127
H           9.90710330015929   11.96780446151443    1.52017995413579
H          12.79265029316263   16.57039504993968    0.48323596421350
H          15.31675208939793   15.47260043187237   -0.86310178193859
H          15.13750942039879   21.08933850421016   -0.21113317336308
H          17.64529602247099   21.19362578079739   -1.47606226482762
H          17.24821651049160   16.22490393958909   -1.79176091459095
H          16.35990065049576   12.12584866564442   -1.71096536257908
H          13.12111211386852    9.98286909047227   -0.46310298074823
H           4.17716290768879    6.07256475127717    3.88670196949518
H           6.00093637377190    2.42618804600629    4.00257956329390
H           6.20134429911665   -0.93231127235709    3.51271745659427
H           9.36726246455557   -4.77003180974784    3.41707472741047
