126
 SCF done       -199.751949140563          0.000783309318
C           1.70752340106204    3.16050930179860    5.72871765023717
C           2.02585508510345    1.83921067744241    5.78972907268817
C           2.29664426140995    1.13112939729826    4.59266143464424
C           2.63521665120495   -0.19327589826146    4.36548329827041
C           2.85516121896678   -1.24026927888496    5.40488333908475
C           1.82287277899891   -2.37496264802984    5.31537103259761
N           0.48567707584991   -1.85054107264374    5.54420257051044
C           4.28683632185276   -1.80316222331185    5.34918341168667
N           4.55335072006462   -2.59773725335769    6.53922184881906
C           2.78752660508417   -0.34758813670831    2.93770549038527
C           3.08396092048448   -1.41268527250154    2.16898267999692
C           3.27000434935960   -1.28896143341450    0.70249159820669
C           2.93265198384008    0.05070800730826    0.13226313417036
C           2.61715380776542    1.10608416114934    0.91157204312680
C           2.53523317468859    0.95948639029519    2.31121926840387
C           2.22875073773719    1.84843057705294    3.32983745446578
C           1.89834419578569    3.21981011104380    3.31422042609469
C           1.64341189154338    3.85428490403531    4.49207771396633
C           4.73054155121808   -1.49090982026243    0.37324931450037
C           5.79279432151889   -1.35713411911863    1.21185677849483
C           6.99637060593386   -1.61601704340782    0.47387083084039
C           6.55354306702802   -1.88517665730998   -0.88649078971637
C           5.20943320756527   -1.81543225670953   -0.95941356405465
F           7.38427493666938   -2.17122764489698   -1.90350498076395
C           8.28850669933182   -1.67209989334757    0.94930754617838
C           9.48033983898976   -1.97037651181079    0.23980114595640
C          10.55100932969055   -1.97061496372322    1.11447726688404
C          10.03990364137583   -1.65016685683365    2.45010154274266
C           8.71564155952268   -1.47191221374384    2.33629429215999
F           7.87739065328478   -1.16809448768679    3.34116055336624
C          11.88943158213308   -2.25632517427838    0.77738024073031
C          12.91801310565759   -2.35154943120638    1.66806938585911
C          14.25013605983142   -2.67846161083116    1.34154376663263
N          15.19649514364187   -2.85750940059678    2.33431816288687
C          16.37626410608121   -3.20115814595509    1.75718717989947
C          17.68975633644878   -3.55678454582429    2.01913780400812
C          18.28985879867099   -3.78496518972266    0.76827942259302
N          17.35772711335258   -3.56013166361740   -0.22766585412398
C          16.17585677103472   -3.21656911978047    0.34819552758248
C          14.85305296025640   -2.89421058973423    0.08921602705052
C          19.60139997307196   -4.20209149455958    0.45681608263498
C          20.54467589907339   -4.54908312108318    1.37858545307989
C          21.84052493267498   -5.01806839177037    1.08477749219612
C          22.75435061382384   -5.48219090447198    2.01624917851188
C          23.92394479359719   -5.92211789991503    1.35077008230712
C          23.67225440526008   -5.66479761682824   -0.06661583368986
C          22.44855465522876   -5.13995587301252   -0.23982068536419
F          24.55698643850517   -5.93066459122471   -1.04154245079617
C          25.05106878110088   -6.51457873174890    1.89146077048205
C          26.19894619008088   -7.00585903898444    1.22229354766529
C          27.05609010457684   -7.58250570153622    2.14127019234212
C          26.45314863224180   -7.44626359952734    3.46800693219393
C          25.28087634895723   -6.81309481125755    3.30550255400610
F          24.41899364850974   -6.49107012845905    4.28471635519472
C          28.28645272495569   -8.20787292946364    1.83308429936457
C          29.07567722986501   -8.85686311238559    2.72800126212660
C          30.31092098923504   -9.52835520800058    2.45300758596070
C          30.88540617986224  -10.28783968688254    3.45619322218539
C          32.08411387440224  -10.99223936791125    3.23655002447231
C          32.83898590218823  -11.83620461206331    4.04767885269133
C          32.60879443015577  -12.29952777495848    5.45127156990392
C          32.96895342604621  -11.21344056991330    6.48680844817643
N          32.11434289383575  -10.04622031839404    6.36586202374393
C          31.18527427736421  -12.82749804648337    5.68440365630322
N          30.90733749053732  -13.90707228781023    4.74960706267504
C          33.97663491703848  -12.25365739282593    3.26318672585588
C          35.01037422846825  -13.06725782597284    3.55478226047717
C          36.06976252086052  -13.36087548557665    2.56071148788319
C          35.91483573192362  -12.68126839807080    1.24399385546249
C          34.87750823964044  -11.87203483194477    0.96351587754904
C          33.87850914440489  -11.62875706384808    1.93755057614893
C          32.72655051371976  -10.87313228792505    1.93059129563819
C          32.13037425216189  -10.07355075083219    0.92633116152120
C          30.96265411896236   -9.43476591364527    1.17688202532240
H           1.49392391805057    3.70962090967326    6.63494344792412
H           2.06779297217278    1.32809953022191    6.74061943208992
H           2.73208687770142   -0.76971108801319    6.38743583916267
H           2.12386579874003   -3.15448936750154    6.03376159249843
H           1.83214070466881   -2.80948724594627    4.31350235749768
H           0.42373335538992   -1.44133264519691    6.47090627542636
H          -0.19866142873590   -2.59693318523831    5.49003886501273
H           4.98904991651163   -0.96254012219199    5.22197305083846
H           4.39796351295571   -2.46326205112328    4.48694681801226
H           4.54510657154911   -2.00369343827192    7.36287306758650
H           5.47404652904854   -3.01832994772906    6.47607099042573
H           3.26055447903739   -2.39460896548808    2.58337124045488
H           2.69934093290651   -2.07531449662989    0.18949125821665
H           3.00831391876961    0.14672810918326   -0.93974831997186
H           2.40799622926601    2.07046823606992    0.47030024335271
H           1.84913161603909    3.74835722002122    2.37327258959073
H           1.38519189554986    4.90334989678055    4.50290228983676
H           5.75428155541113   -1.11245557579646    2.25459178699936
H           4.59348035173511   -1.97283043061079   -1.82364766894979
H           9.53344922110169   -2.17483462944147   -0.81132621911411
H          10.62309486619431   -1.56558742285782    3.34585305666086
H          12.08617544021562   -2.43694281709273   -0.27033634200772
H          12.71591569520864   -2.19499699231048    2.71942904107178
H          15.00808060096865   -2.78013300767584    3.31882536037238
H          18.17347257327994   -3.64382449049458    2.97029816243337
H          17.53820404829313   -3.67381767099412   -1.21021468870138
H          14.36491255797506   -2.81485850233939   -0.86052775571999
H          19.84218556190300   -4.27291945617837   -0.59541366785655
H          20.28915488728019   -4.49920334950517    2.42814943496525
H          22.59462626747518   -5.52479706962708    3.07573823365368
H          21.99986641696077   -4.85231685185622   -1.17012480456062
H          26.36415414025339   -6.95213713208767    0.16401523493763
H          26.87829502061012   -7.78340472991387    4.39264400447940
H          28.57076544419415   -8.16632693320695    0.79024475956161
H          28.74512559577327   -8.91211925575991    3.75699501377151
H          30.40448331707509  -10.33446859057574    4.42109984411553
H          33.28493397602539  -13.14133241410139    5.63124556096039
H          34.04159484364082  -10.97667297489831    6.37305552642113
H          32.82038717354101  -11.63134603355535    7.48672035526730
H          32.32521323387771   -9.55056078124973    5.50580745261897
H          32.27880337676520   -9.41008232555749    7.13800320219225
H          30.47116474715661  -11.99613913110499    5.63017320948633
H          31.13129445256008  -13.24513452094557    6.69450237221846
H          30.96333435994278  -13.55748822384029    3.79765688367444
H          29.96854937016078  -14.26244048040099    4.89431385327313
H          35.10671151812555  -13.54662922945972    4.51968761599684
H          37.04598003018440  -13.10484255120979    2.99413042244459
H          36.10869331129175  -14.44814261207836    2.40652904200980
H          36.68511304769246  -12.87596958446975    0.51271046893122
H          34.79181122845932  -11.39764567024978   -0.00349986589598
H          32.61686273115680   -9.98371251452370   -0.03431135169430
H          30.51282617217080   -8.82316458309578    0.41096342187001
