98
 SCF done       -163.094965308411          0.000518878099
N          -6.52473448382528   -0.58720504187391    4.09208842961192
C          -7.89908036305726   -0.51400017901033    4.21847865316682
C          -8.62483762370723    0.63997096485572    4.18494092365543
S         -10.31910699785814    0.36745524185104    4.33263439543474
C         -10.06926501063642   -1.32188878865853    4.44861283497515
C          -8.75011030064959   -1.66320495922363    4.35831785880609
N          -8.29421690005587   -2.97783547740430    4.48281673180886
C          -7.41517809950675   -3.61317194311363    3.67263948568249
C          -6.85179586337556   -3.10622729578206    2.54408895681290
C          -5.91779531505538   -3.81704023918397    1.75959118326616
C          -5.33383186765494   -3.24850977931213    0.53661477923031
N          -4.49713769792899   -4.02356489944207   -0.08134067999158
C          -4.44758549959959   -5.16719518702986    0.66937826688359
C          -5.32661352262941   -5.06815001547709    1.84343230920181
C          -5.25922404395504   -6.29111826715247    2.59025517735765
S          -6.09712733407666   -6.70607326265888    3.95460981565264
C          -4.32546153248533   -7.12375651556022    1.86368772590020
C          -3.85164579717250   -6.39899940149287    0.67707840601006
N          -3.01125671378648   -7.17835510581224   -0.06609789850467
C          -2.97174252197160   -8.32240084865919    0.55066059727411
C          -3.77323207997448   -8.38319131543857    1.77705188230344
C          -3.87379652717988   -9.53426469121929    2.63405378659532
C          -4.11720237708020   -9.38822050999648    3.98312593703343
C          -4.19764266105463  -10.52472503431469    4.80677258116782
C          -4.41598814034871  -10.64123645586855    6.17612667909448
C          -4.62700105000017   -9.51856060450784    7.13399244271428
C          -5.92035327231445   -9.68546951208293    7.95287300599202
N          -6.42522881924759   -8.38202258445341    8.33985220397635
C          -3.39571391828841   -9.35604175679309    8.04577549922303
N          -2.27255285486049   -8.88984888291654    7.25557632095999
C          -4.36111336869712  -12.04989884960300    6.48650810173513
C          -4.47329875435615  -12.72556375738714    7.64723525192738
C          -4.29059263506026  -14.20046548811317    7.71133790783393
C          -4.18928377937871  -14.88048109716395    6.38465171010744
C          -4.07551756981053  -14.19561412655892    5.22965397302863
C          -4.12760743937384  -12.78330484227603    5.22924764373621
C          -4.02390048225191  -11.84500505740349    4.22072424104063
C          -3.78094917628006  -11.96324323153577    2.83307280663311
C          -3.70389671981526  -10.84242993194505    2.07168004126029
C          -2.97141630057636  -14.45494930515291    8.40568547433336
C          -2.83943990303109  -15.19095902652155    9.51417011995170
C          -1.59500857607931  -15.47688909745379   10.15737097144189
C          -0.24761651174534  -15.07941886247636    9.74056355392570
N           0.70383268876788  -15.49207358009516   10.52843953184660
C           0.07722684534110  -16.19064791110012   11.52211914061401
C          -1.37624557293696  -16.19634434900498   11.30872072952222
C          -2.02507766361772  -16.93398190603794   12.36871233796247
S          -3.63189356984415  -17.24405427449478   12.58361410355312
C          -0.94621073122142  -17.35466023490499   13.20659960618847
C           0.33336631493841  -16.90145997455559   12.66845849180061
N           1.36648506067846  -17.34173992400591   13.45769995286823
C           0.81314390437811  -18.00346335793768   14.42991874934270
C          -0.65245766715597  -18.04669100817636   14.36142357024440
N          -1.53065538678137  -18.67377317817606   15.17069096618438
C          -1.31758387183463  -19.20794033941201   16.42697956256480
C          -0.32941530657024  -18.84892203600807   17.30045649127266
S          -0.46157597167652  -19.65506120723812   18.80688905205552
C          -1.85734379994554  -20.50491846260001   18.27243629626170
C          -2.21061549264311  -20.18539371581919   16.99321839315836
N          -3.32002240860577  -20.69979096438302   16.35134167933242
C          -3.39081627697021  -21.06538704936259   15.01932797871173
C          -4.43749831593107  -21.67943467075829   14.48324534729453
H          -6.03707345922593    0.27387658979699    4.28319837203167
H          -6.09755737208231   -1.39790561729289    4.51305209380420
H          -8.25647586536696    1.64093816154624    4.08984344915555
H         -10.90507793937911   -1.98117777632052    4.57266066724277
H          -8.82183022417599   -3.56112795300367    5.11644310934586
H          -7.16867674822135   -4.61999694028185    3.98633265871378
H          -7.11668425747670   -2.11757626484771    2.19924166618761
H          -5.55597778791573   -2.26470234489735    0.15864560386787
H          -2.35230642566182   -9.11784768415619    0.17381877127594
H          -4.21663443039617   -8.40534553126786    4.41364831239718
H          -4.73404389732259   -8.59174079321178    6.56476411998664
H          -5.73479046066494  -10.35092928266117    8.81337230225922
H          -6.68113798956080  -10.15477272186500    7.32250611146570
H          -5.76245827896859   -7.90375373832025    8.94012304707575
H          -7.30032448739842   -8.47066455857469    8.84320472918030
H          -3.20044712721946  -10.31040329447355    8.56644412683320
H          -3.59843870653713   -8.59313770081095    8.80324955954607
H          -2.05617283273906   -9.55897974911857    6.52393506888242
H          -1.44769324223059   -8.77212813968379    7.83268383730018
H          -4.63668499817378  -12.22982859960948    8.59312687278394
H          -5.08882562783264  -14.64893640021290    8.31439451167437
H          -4.14798006560771  -15.95843982400162    6.40845750519069
H          -3.96520972298055  -14.71553055104680    4.28888417280671
H          -3.65980902840499  -12.94242734157359    2.39316502905052
H          -3.53537512088940  -10.92308575172183    1.00843473384880
H          -2.11352353945261  -14.02014243019415    7.91363182013737
H          -3.71281377038582  -15.61874153108243    9.99092760096260
H          -0.00798673256494  -14.50259602461214    8.86462960806442
H           1.42254657592566  -18.49371119929354   15.16771015461900
H          -2.49321311943234  -18.66320979457515   14.84748561002592
H           0.43683275783265  -18.11438373022566   17.16338322910443
H          -2.34820342777168  -21.18946437393393   18.93413315360401
H          -4.00191016766528  -21.14025247723706   16.95315391675376
H          -2.52118859782578  -20.82267958340568   14.42678721832027
H          -5.30525656193910  -21.93735033020929   15.06573217728712
H          -4.45634969280742  -21.92982155229811   13.44059301048100
