106
 SCF done       -175.314204164470          0.000914399159
N          -7.33578898064371    3.39111141038224    0.97086390765453
C          -6.83261187832283    3.24162688054558   -0.31921730427296
C          -7.32821346583244    3.82237791715914   -1.44488124279265
S          -6.37845241535350    3.47182708043169   -2.83832134152973
C          -5.29584857884069    2.51777056463326   -1.91103291639236
C          -5.63966620848324    2.48727474945050   -0.58912229163608
N          -4.96012914860274    1.85418247969530    0.43499981058280
C          -3.93672250530639    0.98827762077817    0.30202185679355
C          -3.30274951147911    0.42180465974420    1.36116908949510
C          -2.25228983793084   -0.51940401119768    1.28293283496159
N          -2.01175131286051   -1.31816155082767    2.32183139017800
C          -1.05852852248265   -2.17066952624602    1.92040259725663
C          -0.64194279836414   -1.90027671070947    0.53346653236133
C           0.40942314726876   -2.84295789657862    0.12209237624625
O           0.95938939793933   -2.94158889504260   -0.95819706652860
C           0.61366519987716   -3.64899534434729    1.33412900334050
C          -0.30424454665627   -3.21949268562864    2.40113829206154
N          -0.10546634204952   -3.94493621566894    3.52595152190036
C           0.87061251161183   -4.77539356795580    3.22857558674093
C           1.37040472697258   -4.63930852708414    1.88463158092395
C          -1.35962556242151   -0.80254674054680    0.12936926690536
C          -1.22515478000511   -0.00328212263360   -1.04452260546869
C          -0.55954043565995   -0.41995519466214   -2.14430647134533
C          -0.32323483974696    0.33180311335009   -3.34664040345935
C           0.43052665275474   -0.25585264628946   -4.34268737990489
C           0.72629860639485    0.44780796086738   -5.52223502326846
C           1.46947317647949    0.08450855129688   -6.64212354472055
C           2.13056637184368   -1.22908439482858   -6.86872719626067
C           1.48510240936773   -1.97532732325033   -8.04946021671759
N           0.15436934235917   -2.40888485051974   -7.66563596580492
C           3.66503361318691   -1.08444728644526   -7.06119180769275
N           4.42392072160118   -2.27494427933043   -6.76099260948810
C           1.47214611238161    1.22170281044966   -7.52734602605878
C           2.05697724359414    1.43494670600259   -8.72235174742883
C           1.97864327046623    2.75876672673422   -9.39739642679546
C           1.01875684150694    3.72641760446349   -8.78354912799812
C           0.44093081782790    3.50127519261433   -7.58522445737248
C           0.65730907679085    2.28357168132973   -6.90544760275246
C           0.21950977586918    1.80135093280178   -5.68703867164364
C          -0.56849892319837    2.37511953260404   -4.66264903628431
C          -0.82553074590572    1.66250520047482   -3.53693463056161
C           3.32062550924917    3.41933582447283   -9.21297170363121
C           4.09553725783879    3.86622249757632  -10.21196502874722
C           5.33736712568515    4.52768351871863   -9.95934895394849
N           5.72688166560072    4.82363504875072   -8.72899379178181
C           6.92225801918662    5.43629892884155   -8.85778257297845
C           7.32443142444868    5.53330838163106  -10.26582669604335
C           8.61650959954790    6.20514006897513  -10.38174258092092
O           9.25049114398104    6.47042209466880  -11.38976624092766
C           8.96551670721149    6.49326639338901   -8.97791193010872
C           7.90233120592825    6.01052272622552   -8.08123224911734
N           8.21145177745354    6.27162018311444   -6.78617508637876
C           9.37768067626526    6.87062152992775   -6.82848998234930
C           9.90602650807897    7.04160420861679   -8.16385172262392
C           6.31353526737738    4.94685816276715  -10.99321314085563
C           6.18123118192363    4.73282248426600  -12.38961805161843
C           7.14207892372017    5.13571838605575  -13.25615079633871
N           7.13277209540109    4.99548906304021  -14.60589060274222
C           6.27116178093407    4.23554016032068  -15.38828516863592
C           5.66853310602567    3.06334273995645  -15.03900076400163
S           4.73818782745033    2.40358187099651  -16.32122385358585
C           5.15230271336654    3.71675158645508  -17.35616546577835
C           5.96902239662157    4.62073799675426  -16.74334967907177
N           6.48178899864548    5.77780671418013  -17.28652045736340
C           6.41249717260050    6.14885397128834  -18.60958762691780
C           6.76348819680953    7.34826208043733  -19.05701492602735
H          -8.20775115151670    3.90008637844419    0.99518859832183
H          -7.40518235555102    2.52773284004837    1.49349417139219
H          -8.19254932359569    4.44819368712320   -1.53599507677719
H          -4.46382726843441    2.05434968704224   -2.40024886669143
H          -5.22581712680234    2.12921669225209    1.37243467038626
H          -3.69132628729623    0.71904578315224   -0.71309190439833
H          -3.66312972399158    0.61905136317505    2.36233484517188
H           1.22455909554435   -5.47879529723270    3.96263497428350
H           2.16476476218425   -5.21387110198476    1.45001308743547
H          -1.63947839734712    0.99369665674754   -0.99240665645664
H          -0.14048594961585   -1.41746530700578   -2.13484639664596
H           0.80444917732920   -1.25884115095962   -4.20036930482561
H           1.96428085919247   -1.84749134826427   -5.98018986239243
H           2.06660559899161   -2.87403006273816   -8.27957944209779
H           1.49611470011256   -1.32638664051731   -8.94148416322406
H          -0.41938831698574   -1.60593885648733   -7.42872001082396
H          -0.29651950013305   -2.90856676492585   -8.42344633600570
H           4.03053811324249   -0.28627942191842   -6.41039722106831
H           3.88516289235811   -0.80643094641383   -8.09466950353579
H           4.32585963293125   -2.52705162140437   -5.78392816179222
H           4.10860419704123   -3.06005100490290   -7.31968746108500
H           2.67152983450523    0.69181364999771   -9.20875031570681
H           1.78376148181645    2.63281528087922  -10.46845004279666
H           0.87179692894597    4.65273621349772   -9.31628374991234
H          -0.21398240903118    4.23869210304743   -7.14380439196534
H          -0.95156532702094    3.37805844414960   -4.78414691589033
H          -1.41917679692621    2.10887288242504   -2.75348771105425
H           3.64418965216828    3.56290311222647   -8.19277597006276
H           3.80142516739502    3.72942694228946  -11.24374055653522
H           9.85730437744218    7.18997155020087   -5.91935392045372
H          10.84026465916233    7.50635436322986   -8.41133924511153
H           5.28453172093237    4.25282948924064  -12.74934301841929
H           8.01113769664703    5.65601513925364  -12.87362990131327
H           7.89176831112859    5.43518052926945  -15.10661333502054
H           5.75659467621342    2.52318779147451  -14.11919472945660
H           4.75239130133299    3.73898281931131  -18.34823548328396
H           6.78801583079780    6.49126027205326  -16.64054919801606
H           6.07743139239848    5.36979175936219  -19.27664708021264
H           7.09902023877254    8.12709222998777  -18.39368184219653
H           6.72374167720860    7.58362563645848  -20.10247603258559
