120
 SCF done       -211.045038201059          0.000652964567
C           6.36167708605027    1.07462870471813   -0.86509832267130
S           4.73317639964278    0.52266253853209   -0.79044288172448
C           5.23167623783785   -1.11828902510037   -0.62945334834902
C           6.60747975412141   -1.20123154602063   -0.63635454624061
C           7.24810251041231    0.06027243325161   -0.77541889015031
N           7.34238076238772   -2.41221455514794   -0.57368432707577
O           6.73304666720974   -3.45829538805242   -0.45582821872217
O           8.55373179242859   -2.32955418991901   -0.63900910116740
C           4.23873967835207   -2.19283610885719   -0.58294739807847
C           3.43261950151414   -2.40194113182968   -1.70841391612166
C           3.65953387632475   -1.53045325259884   -2.89261592313905
O           4.73051962073324   -1.46564485064387   -3.46353285772368
C           2.55019078685707   -0.64843406717064   -3.27780808421994
C           1.22812782032127   -0.72664215466668   -2.93442278130239
S           0.31404254636620    0.55875322539681   -3.59018519328570
C           1.72365293140364    1.24580961595591   -4.31552871155718
C           2.83125553421039    0.50469853596976   -4.07860906300429
C           4.24166650852550    0.86292685215973   -4.43936185575290
O           4.91066500700667    1.51559374326595   -3.66674077981308
C           4.72181394604513    0.40900594339022   -5.75701274420415
C           6.05323324478557    0.64782575959373   -6.09673378907923
C           6.54409843596243    0.23629179096544   -7.31953925847867
C           5.71058914696807   -0.41630790955589   -8.21464079095450
C           4.38666025019513   -0.65968875920361   -7.88285090453372
C           3.89063420307564   -0.25263675149706   -6.65921620895033
C           2.49102004627296   -3.42212153092236   -1.69403045397176
C           2.33458239330907   -4.20683549052395   -0.56949664968967
C           3.10154015366862   -3.98097188411752    0.57431488689146
C           4.05341193533357   -2.96623251061861    0.55280819275320
C           2.89392329363156   -4.79296983817197    1.77914999308050
C           2.67549334199436   -6.13895613947628    1.68426972781487
C           2.43404246342574   -6.90181930893453    2.85164812272653
C           2.16333776728601   -8.24780615770812    3.02052562198775
C           2.17552038182732   -9.29610571307540    1.95650122910446
C           3.30232380667443  -10.31763300657830    2.24112081392040
N           4.62656423713157   -9.73214819716143    2.33071638458332
C           0.80921863056059   -9.98398746001272    1.78858397783352
N           0.67995798178646  -10.49377516940761    0.43413953905440
C           1.94036951994191   -8.45400236052605    4.43498260547257
C           1.57922382402439   -9.54046048088812    5.14074192875348
C           1.37731407769049   -9.48965316452505    6.61826258583470
C           1.66424955037246   -8.16502263451726    7.24324815852305
C           1.99606650280555   -7.07854406188433    6.52256967831966
C           2.12964831785152   -7.16243427410913    5.11605459139780
C           2.41764410192945   -6.22710808833615    4.14370146024673
C           2.66593373938769   -4.83592411086721    4.20484347552889
C           2.89944074079643   -4.14871622058077    3.05851172626511
C           2.14982852376665  -10.63092857160721    7.23626950773362
C           3.26980046241888  -10.46570987643376    7.93155558674886
C           4.02671002419391  -11.54610212128306    8.54779533320768
C           4.81266622349538  -11.31143354894449    9.69020240207029
C           4.91649437591872   -9.95308628084931   10.27928276146618
O           3.96394936069909   -9.21135273935815   10.41709638234378
C           6.27155570070920   -9.55154922986786   10.70485678211060
C           6.44755832517186   -8.59939535616560   11.67291781578830
S           8.09004892096056   -8.32818360594228   12.05052130534500
C           8.57584876137987   -9.50366782780204   10.89707477589479
C           7.52510306175684  -10.06886760561471   10.23934343593655
C           7.76391867226716  -11.09187458498516    9.18506621769570
O           8.53766991622873  -12.00653459812504    9.38169607549499
C           7.07120228216829  -10.91432393536821    7.88908040674991
C           6.52406960159426   -9.69834770159827    7.48340540355231
C           5.91448837186257   -9.59466388082974    6.24655889079447
C           5.84291215109846  -10.69409193321359    5.40452125640555
C           6.39339097889950  -11.90327062957309    5.80047572166249
C           7.01106576867482  -12.01196029693823    7.02990429058739
C           5.49044438379843  -12.36889396055909   10.29388852538899
C           5.45092306597431  -13.63756638100151    9.75818073882498
C           4.74549350754374  -13.86966176437852    8.57440669340152
C           4.03600885578537  -12.82136981708805    7.99606087619399
C           4.76034700115554  -15.17486498082204    7.94544062675370
S           4.30260319486879  -15.35019204631842    6.26537592999234
C           4.58014489852728  -17.02622707367234    6.30071217931890
C           5.00037378125084  -17.43647394851464    7.53911012684790
C           5.10832089719105  -16.38245283825655    8.47650839106889
N           5.29254486048612  -18.79457066210689    7.85063466770181
O           5.16051700858604  -19.61285075907836    6.96292883599163
O           5.65135274684064  -19.04420993066671    8.98205442080795
H           6.54898901428853    2.12136675393742   -0.98987173394131
H           8.31683370930008    0.16244599701727   -0.81180946890412
H           0.74235823584184   -1.47429085129041   -2.33989183212232
H           1.64207056525905    2.15982899538500   -4.86895258228148
H           6.68339296372318    1.15354316579032   -5.38072454854204
H           7.57627492702405    0.42041250222935   -7.57783086054225
H           6.09318805259326   -0.73950595516220   -9.17163234509297
H           3.74141257314180   -1.17176748007929   -8.58160822607326
H           2.85929361195899   -0.44712043619618   -6.40297768882196
H           1.90166341931081   -3.61681117620181   -2.57820686466857
H           1.59473164789566   -4.99328414508961   -0.56584341063651
H           4.67828283245001   -2.79448977407508    1.41572570127023
H           2.69661543273865   -6.62671141563323    0.72068762898899
H           2.39399671023263   -8.81185367586536    0.99878671684908
H           3.32638046467295  -11.07514466348882    1.45375343680608
H           3.10439563083700  -10.81998377805260    3.19312817327793
H           4.91844492284775   -9.38185275356086    1.42401720973990
H           4.59990685610242   -8.93306866965916    2.95912993289288
H           0.01988798731370   -9.24063409117941    1.93368055605145
H           0.68518828124117  -10.76247120593758    2.55968470132541
H           1.35370776113230  -11.23312842596637    0.26592549706032
H          -0.24542881783394  -10.87973895001057    0.28466432373910
H           1.40759594755104  -10.50065513242343    4.67490715600397
H           0.30954750571878   -9.70929193730279    6.79358618083292
H           1.56546010581137   -8.11974568854761    8.31678302847108
H           2.16793983350928   -6.12815561936548    7.00702490297305
H           2.65642164919589   -4.33468280312012    5.16174517834315
H           3.06465346366088   -3.08183899751690    3.08874608980342
H           1.73356166127229  -11.61496711690562    7.06758022425006
H           3.62813004710391   -9.46327113927252    8.11018004080505
H           5.67127677234890   -8.06999533205031   12.18964674997475
H           9.61672728452261   -9.70624252192317   10.73951335244390
H           6.59149214848155   -8.83157977557308    8.12496795252048
H           5.49454059394050   -8.65015897914433    5.93342222857065
H           5.38369965218817  -10.60251309843593    4.43204544279308
H           6.34733570497025  -12.75773757474153    5.14180471607697
H           7.45903647168335  -12.93983796845732    7.35332677930499
H           6.04608968986128  -12.19620369376707   11.20371216593088
H           5.99817936868169  -14.43559478284292   10.23216843276873
H           3.49132120073903  -13.00076989849760    7.08089749326695
H           4.42693544795986  -17.64059110602038    5.43559630931819
H           5.41518192719348  -16.54914996469968    9.49199719434274
