108
 SCF done       -205.345603586308          0.000740149438
C          -9.68049025068756   -2.45439996812312    4.00263476703527
C         -10.23354854551598   -1.14474280577737    3.56850995056950
O          -9.82539510874809   -0.04661812919140    3.83644233820739
C         -11.33663151817576   -1.49674506190999    2.62767083272889
C         -11.35775498254624   -2.88226934203609    2.40087157701024
C         -10.28310586868346   -3.54093308188801    3.18792093897740
O          -9.95777372973954   -4.70092585917597    3.18172047727857
C         -12.29925380342764   -3.42635722792175    1.54208717562077
C         -13.22136129871914   -2.60108699127187    0.90587586512776
C         -13.19990139814151   -1.23734963074919    1.12759259507188
C         -12.25549954927794   -0.68221300052962    1.98674351426523
F         -12.26006689930828    0.63635988513417    2.17816949010794
F         -12.34129617669955   -4.73870734346786    1.30827062347119
C          -8.76225223526595   -2.68118886279908    4.95748968190975
C          -8.23172258773593   -1.68379770304147    5.85079542669594
N          -8.99757547494550   -0.89014453054126    6.56151650043239
C          -8.15039767370691   -0.11787047248104    7.28888760918622
C          -6.75134295744959   -0.45515792921951    7.00839750108889
C          -5.85013116036331    0.40592300122659    7.78559798883905
O          -4.63636217951203    0.41882089205752    7.80055555543675
C          -6.78910110417414    1.25667185268894    8.54407593170408
C          -8.18512021504731    0.89737148604711    8.21201012762081
N          -9.05534972918931    1.67060481641043    8.90797484615251
C          -8.30663566494945    2.46808222206487    9.62664899362825
C          -6.87962646264286    2.26522522139909    9.44610482423511
C          -6.78503821227479   -1.47761124759466    6.08745019900828
C          -5.75374716771070   -2.19805240085872    5.42690930292342
C          -4.44032229319598   -1.94966918960661    5.64497086235584
C          -3.32774173274113   -2.59028202003810    5.00489307025423
C          -2.06087222563914   -2.08293314811428    5.24486042877010
C          -0.93952306980364   -2.62908768222448    4.60378365311462
C           0.41647622609223   -2.28690313276869    4.63800236687721
C           1.08565780002891   -1.23367679222626    5.43582445913744
C           0.58872317233659    0.18292822876730    5.01475552603435
N           1.31178047783378    1.28635781836718    5.58570581909880
C           0.89489410075291   -1.45776395167244    6.96214726639987
N           1.41820457438398   -2.70370306924515    7.46113125441359
C           1.09405902435695   -3.17915711590322    3.72845060775464
C           2.38071898500890   -3.24057941300027    3.33339054096929
C           2.84796847944922   -4.25504029073952    2.35380769415675
C           1.78156699085686   -5.17346885103104    1.84326481276245
C           0.49619825176990   -5.09400876765658    2.24382177831847
C           0.09876412851678   -4.10279216080497    3.16653368950762
C          -1.12970391735573   -3.75266063005661    3.69945743035337
C          -2.42466903468349   -4.27694997138454    3.49577123097743
C          -3.48541802199281   -3.70812139793952    4.12496742796841
C           3.89162223103813   -5.14085514783078    2.98037704714330
C           4.98912394838334   -5.55262276475392    2.32862899690472
C           5.96011602654633   -6.41294867999606    2.92473694562120
N           5.90948400670649   -6.77537008648781    4.19939359683220
C           6.99082522857959   -7.54878854963189    4.40692779688917
C           7.78930934307080   -7.69942144084682    3.18203205559895
C           8.96970661620002   -8.54801405064559    3.43285898074449
O           9.83603261120247   -8.87897204503669    2.65238940713720
C           8.82722093191030   -8.88097642765183    4.85860539411962
C           7.60957772366707   -8.25511631168909    5.41554344750907
N           7.47298373595765   -8.55708123812581    6.72579401464131
C           8.50826436750730   -9.31505158333903    7.01281386636842
C           9.39204812346148   -9.55605337557837    5.89508358530182
C           7.13500236239457   -6.97162267558502    2.21571261590174
C           7.40778449286052   -6.76354622746450    0.83873073620897
C           8.47336437500202   -7.28315345836697    0.17392489603395
C           8.73812177392907   -7.10239766504512   -1.20773682718704
C           8.08157654309960   -6.42939501542934   -2.20244044528154
C           8.66036447328635   -6.49336396746622   -3.56850113725904
O           9.67151315584695   -7.06463794190003   -3.89556526554033
C           7.74239922307326   -5.71419467842501   -4.44396394324112
C           6.69553349307054   -5.20269450505614   -3.66797296015369
C           6.85972934951345   -5.61322478255740   -2.24473422593271
O           6.10445925468351   -5.29784268698494   -1.34780016757238
C           5.70631262952962   -4.43815366982367   -4.26183227208763
C           5.75170179391229   -4.18045392769135   -5.62848299122896
C           6.78408292869563   -4.68615686782013   -6.39438903496470
C           7.78323607897525   -5.45482292676701   -5.80255042227784
F           8.76598798196735   -5.92866763894255   -6.56963768115768
F           4.69476811523219   -3.93661661176325   -3.54537822278282
H         -13.94684457647159   -3.04132388658071    0.23998343461508
H         -13.90934651788788   -0.58773129806798    0.63939109129100
H          -8.38873033549322   -3.69508039636319    5.07131118798712
H          -8.75673865064212    3.19228276536829   10.28327085761332
H          -6.10509939125931    2.81619396828566    9.94219116173499
H          -6.07369432621855   -2.94821187182638    4.71693963413711
H          -4.18581109749902   -1.17002023041870    6.35202042910038
H          -1.95860364855594   -1.24418732833403    5.91620697875470
H           2.16434590588131   -1.27294804911812    5.23279703010962
H          -0.46252529861268    0.29644594492623    5.28057359278979
H           0.67486307494917    0.25790862716730    3.92650422355049
H           1.16965928458368    1.35914686974442    6.58514407130777
H           2.30486022064906    1.22786874465966    5.39436672417357
H          -0.16599744857576   -1.41878808321373    7.21283627232572
H           1.40568042362934   -0.65337315759157    7.50007214945139
H           0.93732587795723   -3.49576278690753    7.05082266429670
H           2.40970932275080   -2.79634567946474    7.27232182240145
H           3.13656612912933   -2.56792963533061    3.71564153653495
H           3.30953716459413   -3.73659523209013    1.50096388080240
H           2.10559612529203   -5.92006622080979    1.13564651084144
H          -0.24563926196598   -5.77195066131837    1.84794207016769
H          -2.55872901742359   -5.12134572813044    2.83616112216726
H          -4.47382352493327   -4.10914946582516    3.96662183725897
H           3.69981078093759   -5.49517212813853    3.98247643672969
H           5.17068824235468   -5.22806063123303    1.31315936008443
H           8.63888001757848   -9.69770061315313    8.01016056155147
H          10.28708275385731  -10.14538926742760    5.92188375661257
H           6.70249332697106   -6.15531206154328    0.29486373141686
H           9.18609913845766   -7.89159224338324    0.71654856460738
H           9.63565582018441   -7.60194741001675   -1.56611696023484
H           4.97258300368120   -3.58381206339301   -6.07623230932001
H           6.83022360202357   -4.49391009339763   -7.45473576481257
