126
 SCF done       -196.166024580888          0.000562514735
C           3.83845271692319   -4.13022805359203    3.46209622954868
C           3.72287870018790   -4.41816065723688    2.16588417724563
C           4.75679270047511   -4.12351866472010    1.21353832104907
C           4.65077612572455   -4.36444337557502   -0.10691277291358
C           5.63590630733773   -4.04394056216207   -1.10444143041587
C           6.86922999830979   -3.57548064155620   -0.85204565263904
C           7.83968415557343   -3.17534860909244   -1.85867204169479
C           8.72883256607969   -2.11507784672275   -1.59812017248740
C           8.60393577366580   -1.27073431562699   -0.38806912181827
O           9.55893199602535   -0.88367255581009    0.25300522049212
C           7.20499422124819   -0.89420883932723   -0.05632876742086
C           6.26990846762340   -0.58604166916927   -1.00246593608281
S           4.73287237841288   -0.24846006362158   -0.32830303536101
C           5.32772743896756   -0.56036617263121    1.25456006888146
C           6.65350461272863   -0.85705499071493    1.26253479916489
C           7.40654603071249   -1.23198705470647    2.49584705596642
O           7.12037335144196   -2.24042053422568    3.10869209091869
C           8.48510944665407   -0.31463696855169    2.90179769195147
C           8.57019855784068    0.98301807884342    2.39943036994322
C           9.59313894640535    1.81427022631337    2.80997848714255
C          10.53946181253454    1.36061881364321    3.71595014619825
C          10.45725745649741    0.07379121983955    4.22381372854714
C           9.43185369027072   -0.75940743405977    3.82390805338015
C           9.73481328609342   -1.81626209054704   -2.51189321439701
C           9.83533130966474   -2.50569683058513   -3.70150688314738
C           8.94072671976534   -3.53661198155686   -3.99782708020406
C           7.96264501440772   -3.86145449292842   -3.06208474729822
C           9.05725440170836   -4.28514000624612   -5.25455344683482
C           8.89847027630556   -5.64353964754887   -5.27695451430991
C           9.06582500545440   -6.36173192607309   -6.48371771350081
C           8.99575137631208   -7.71586946947650   -6.76082701699445
C           8.71482360521299   -8.80136414260236   -5.77333815236917
C           7.57641784401843   -9.75693532378605   -6.21175643825615
N           8.04522107986414  -10.86207881776708   -7.02984997551880
C          10.00362888366025   -9.57485727747708   -5.44796935950889
N          11.03024887114448   -8.65309439580715   -4.99547758372437
C           9.26200425934159   -7.86473353085952   -8.17266770906489
C           9.28933400710383   -8.95639806631706   -8.95947905346924
C           9.52608867450899   -8.85486002646999  -10.42272369942695
C           9.84443850594382   -7.47187490070927  -10.91220725633347
C           9.81522091376702   -6.39381689231948  -10.10839026939587
C           9.51002407819761   -6.53140675392676   -8.73285963737241
C           9.38701597530507   -5.62434275148874   -7.69925346379861
C           9.51590825098439   -4.21766271354526   -7.64611378901951
C           9.36373815710612   -3.57614923443123   -6.45975780931899
C           8.32918852780803   -9.32586861089453  -11.21697047979027
C           7.10486791711782   -9.46507485281884  -10.71548051412455
C           5.92237462067297   -9.80766242484341  -11.49393134607989
C           4.80070767475943  -10.40624067173349  -10.88653991897483
C           4.80124318710621  -10.81332175588479   -9.46911744735216
O           5.76176499610721  -11.31165525469733   -8.90786115188356
C           3.51823589705371  -10.62895029590339   -8.75695843347416
C           3.11743887938751  -11.46970689822002   -7.75720106283429
S           1.56309688687082  -11.08684571325040   -7.15190347769207
C           1.43183722340056   -9.76762139549914   -8.24513808235468
C           2.53561860014910   -9.62220649063948   -9.02867136620527
C           2.66893100646048   -8.51232917343539  -10.00855609249513
O           1.77034607440150   -8.23133364333839  -10.77342238883461
C           3.93560837295859   -7.74628662995376   -9.95157910265316
C           4.32753726681847   -7.02951186206325  -11.08129775520048
C           5.48848555794296   -6.28263472807538  -11.06250902750649
C           6.25362991326053   -6.21993678106604   -9.90897561698089
C           5.85899706728898   -6.91062117934502   -8.77426086517852
C           4.70937843457924   -7.67876258360817   -8.79376567686049
C           3.66933291530936  -10.68189034816894  -11.65865410280395
C           3.61696721062550  -10.35998995970789  -12.99424194596167
C           4.70021157456322   -9.72204186400217  -13.61172414813896
C           5.83334285580267   -9.46448293953469  -12.83774241508682
C           4.70263202922244   -9.32375056998227  -15.00116081031233
C           3.65994928166689   -9.39050366542977  -15.85188657519178
C           3.66921309902265   -8.99963183024645  -17.23258313951049
C           4.73055146044134   -8.57227660584624  -17.94534569510999
C           4.65107400303300   -8.20764138046179  -19.33187496377937
C           5.69540703829904   -7.79033022445043  -20.04735794546102
H           3.05790304637474   -4.34965011959109    4.17048195799990
H           4.73009528072055   -3.66368844723927    3.84784258033999
H           2.82288764238371   -4.88565126146906    1.78453339996053
H           5.64534639500593   -3.66695417911446    1.62523177136447
H           3.73288186153078   -4.80491428282932   -0.47871947973064
H           5.31797338247456   -4.15692922927252   -2.13367772384199
H           7.18944610517515   -3.45966813263481    0.17374336622872
H           6.41091718692198   -0.52972018828992   -2.06379604562858
H           4.66907345239401   -0.48761239923157    2.09695965005711
H           7.83373612899255    1.33856619162574    1.69351557583457
H           9.65943017189379    2.81898367061053    2.41937127239238
H          11.34334324477688    2.01244025003847    4.02574681066453
H          11.19586240207226   -0.27786947412394    4.92882014972549
H           9.35041940394661   -1.76726871467134    4.20279271153032
H          10.42290114848238   -1.01734313672096   -2.27714111374280
H          10.62634185597027   -2.26671994512876   -4.39627873238058
H           7.28603172434393   -4.67754783939059   -3.26862688021322
H           8.68660494303858   -6.17722604861686   -4.36152715684598
H           8.38226808471628   -8.31613696592986   -4.84814510018011
H           6.85611831180443   -9.18248665220620   -6.80027982275239
H           7.05651657437544  -10.10517718102117   -5.30367922918760
H           7.28466216040058  -11.23693237282016   -7.58659521607979
H           8.41284745374149  -11.60850512997583   -6.45172986588794
H          10.37091422985337  -10.05686643111963   -6.35571849523879
H           9.76513811026654  -10.36012359535891   -4.70677368299476
H          10.72939820607201   -8.16502871777874   -4.15838240927093
H          11.88435498882274   -9.15288077405676   -4.77629763426439
H           9.09080207547417   -9.93942196284824   -8.55218620470456
H          10.36622809645582   -9.51988298752135  -10.67746159136317
H          10.07311672261821   -7.37984588034115  -11.96373767764687
H          10.03612788355534   -5.41057656847616  -10.50181907813882
H           9.73935549797160   -3.66666757776812   -8.54884332610163
H           9.44933146070701   -2.50034253828240   -6.40806318615000
H           8.52606053033161   -9.50144145069339  -12.26592966455556
H           6.95521547354410   -9.32916651203741   -9.65483107510778
H           3.65659212389175  -12.31429725290226   -7.37532983222403
H           0.55826305568153   -9.14631734222903   -8.23699817853513
H           3.71023759136191   -7.08433669121334  -11.96562140085423
H           5.79455290318088   -5.74113905662506  -11.94503437478366
H           7.15812299796628   -5.63274777982819   -9.88645852045840
H           6.45529319251911   -6.84719723027043   -7.87608238614497
H           4.39827973931973   -8.20511350551391   -7.90234841542074
H           2.82852031398355  -11.18758198882689  -11.20573597376498
H           2.73021174043569  -10.60083226019494  -13.55749904030528
H           6.66592845810111   -8.95230239284482  -13.29690991524052
H           5.64458643038007   -8.92639141142845  -15.35529846675375
H           2.70946579931454   -9.75855645493619  -15.49038653582510
H           2.71512119027495   -9.07075667679167  -17.74104479242773
H           5.70616487781809   -8.49275352307142  -17.48651561365190
H           3.67586466765672   -8.28673978746034  -19.79551288227939
H           6.67734454139734   -7.70267939390209  -19.61194601219970
H           5.60602161804252   -7.52421838984755  -21.08609366022226
