92
 SCF done       -144.816794625763          0.000868887648
C           2.08356934367256    1.73210591888075   -0.66508238009406
C           3.24742981000338    1.51044141772763   -1.27984578554153
C           4.48431251856125    2.20591040254212   -1.04002916864444
C           4.70601085372584    3.14466839637511   -0.09094516646341
C           5.95972863298855    3.79009072506956    0.06863806459837
C           6.19352546786005    4.74015579266380    1.01027830059189
C           7.41579403078431    5.43027462370057    1.20006122718739
C           7.56264958208710    6.48878490099291    2.20684781058155
N           8.73726661988165    7.04241493177202    2.25041734765812
C           9.46589433251195    6.40789019559258    1.28608793336308
C           8.66452124912942    5.38170839304899    0.60203796898094
C           9.48310582942738    4.71749736522233   -0.37985065853199
S           9.07309530221431    3.43080727111081   -1.32819695911272
C          10.76573967935459    5.38094189262121   -0.31265741759389
C          10.72196443065022    6.40639767992767    0.74079155379855
N          11.92955728268003    7.02675233606857    0.87052903531284
C          12.70813090032535    6.44290427071091    0.00762126370436
C          12.06268052757271    5.39112977028590   -0.78491311549505
C          12.73279110251021    4.63646923998822   -1.80793827898394
C          14.10369539670755    4.47062089745297   -1.75609062344089
C          14.75548710168158    3.70938847221344   -2.73968012273316
C          16.10162978117263    3.38836956864849   -2.89784236174928
C          17.21410875786895    3.82733530190796   -2.00992415688307
C          18.03622204858878    2.64126405457109   -1.48188820580918
N          17.14209885411807    1.58967846079396   -1.02766113996432
C          18.10944493789144    4.86188537087146   -2.72150326866463
N          17.36153035091622    6.09242837460130   -2.89136742279507
C          16.20009020144543    2.60118174429830   -4.10425354078972
C          17.25391847707081    2.05841987535738   -4.74287786201683
C          17.10181358798246    1.30057961781226   -6.01314193650145
C          15.68873238733028    1.15513323562664   -6.49076831881846
C          14.64573865219741    1.71599605323650   -5.85074300575278
C          14.84638912406905    2.44921163351194   -4.65836250083790
C          13.97827192378067    3.12555482937371   -3.82154633108261
C          12.58088171583160    3.32884154340688   -3.85952552462832
C          11.98383557154867    4.05789591982862   -2.88156856781023
C          17.88381919628115    1.95063873745956   -7.13087440620162
C          18.12331587653134    3.26545510127397   -7.17545445936100
C          18.83850616696680    3.94206265778041   -8.21163231158031
C          19.45364808807146    3.38326986990551   -9.41707121830953
N          20.04870385031430    4.26136672178407  -10.17492218535385
C          19.87970656923015    5.46046017722046   -9.54374163106835
C          19.12354860800589    5.28445864842268   -8.30051676110345
C          18.94740632808936    6.55478359622175   -7.64141530151861
S          18.18954225367962    6.78062098060227   -6.19547286744574
C          19.58559625619971    7.50748966547014   -8.51028993858190
C          20.16063013663319    6.79667224621309   -9.66862827979309
N          20.78018641335277    7.66511189238979  -10.51885546587586
C          20.62375441352346    8.83823868824573   -9.98165127379277
C          19.87816723044532    8.84551762887894   -8.71761206730416
C          19.59191837964343   10.04423320112963   -8.01939316156149
C          18.89296442564600   10.12079703112053   -6.85689458764814
C          18.56664839674852   11.31633756936515   -6.15288970539089
C          18.83414396241103   12.58323450510110   -6.54726197525500
C          18.45899940770234   13.73813243736713   -5.78714807397414
C          18.70647337254604   14.98970795196366   -6.17922020270436
H           1.20315219839798    1.16402975808107   -0.91088962103257
H           1.96536605493418    2.48467122425233    0.09552037682932
H           3.29141543982382    0.74473394395323   -2.04427768283257
H           5.30955161477775    1.93891560223172   -1.68786375182214
H           3.91295079882323    3.43289432874148    0.58616690672113
H           6.75615380399715    3.50309226926840   -0.60401520711646
H           5.39037837701762    5.02426156099927    1.68126163422206
H           6.77853983866610    6.81157198654822    2.87087899797438
H          13.72609249800185    6.77175991886980   -0.10959579173096
H          14.67495712232647    4.89948682866379   -0.94725147923341
H          16.77446388116531    4.34054549235327   -1.14913458591523
H          18.71385763826416    3.01550166602226   -0.69466702592251
H          18.65765417756511    2.22114173568979   -2.27599499761648
H          16.52027431324526    1.94333724574052   -0.30802238260452
H          17.67066100588038    0.82118725741905   -0.63004691111596
H          18.48079999474895    4.43666911834435   -3.66751640917327
H          18.97330672256928    5.08173432702799   -2.08681396023877
H          16.57924419704481    5.93881321998029   -3.52066031533801
H          17.94687375732336    6.80633035464478   -3.31083123617329
H          18.26647201703738    2.16521997460733   -4.38226710362675
H          17.52576135869829    0.29690685209616   -5.85552170192727
H          15.55196080442183    0.59598555471009   -7.40383786271560
H          13.64169054398093    1.60478976996319   -6.23390066139654
H          11.99932417875109    2.90678949169795   -4.66539694475394
H          10.91949148065754    4.22526007912017   -2.90297090432825
H          18.20125656856068    1.29827205700497   -7.93114872241996
H          17.76909549273131    3.90187417178866   -6.37394347471429
H          19.44680881668413    2.34569863997136   -9.70125281237150
H          21.02545890775527    9.71694202915620  -10.45764974356047
H          19.97080136230374   10.94528885694525   -8.48412614817928
H          18.54267968587495    9.19891910279688   -6.41302282809366
H          18.03973173489046   11.17825171758168   -5.21667461307852
H          19.34746254021745   12.77204462533812   -7.48005012687016
H          17.94649764173788   13.55595149574582   -4.85139707053359
H          19.21372561890232   15.19942482968329   -7.10666652610445
H          18.41154211359318   15.84050312807078   -5.59040012450161
