108
 SCF done       -191.564874853779          0.000508108529
C          -4.37783725482144    9.49159563545767    1.31839745526545
C          -3.62325281028847    9.45393671441121    0.15248619766824
C          -3.13113416428134    8.20625808777152   -0.34718933292670
N          -2.38752469404806    8.18508721335578   -1.47845943455730
C          -2.13459358116501    9.31539504562326   -2.06848789265819
C          -2.62025252170338   10.54923988343053   -1.56834754702758
N          -3.34799460442174   10.61565703022038   -0.49525525999254
C          -3.39554058991855    6.98426356115481    0.31889700683788
C          -4.20573511241566    7.03889048883316    1.48011500860709
C          -4.67082327801015    8.30429024997903    1.97980577956522
N          -5.40259770966723    8.37290220747485    3.12087987743859
C          -5.67796398136928    7.26402682966550    3.73797747537930
C          -5.24881684185066    6.01516468902365    3.23788474050074
N          -4.54181149142201    5.91016953056663    2.14832101412468
C          -2.74294292779017    5.81003683264922   -0.19499837671752
C          -2.77112447065244    4.58817604530188    0.36574902499367
C          -2.04194712773951    3.42568054556322   -0.09194173623484
C          -1.90145631744147    3.17584440570886   -1.46529164987143
C          -1.35110647471701    1.98471767501763   -1.87335001495711
C          -0.93502712607494    1.02211223302967   -0.94188197405424
C          -0.43516813800387   -0.15567719652828   -1.68678294197940
O           0.02041994471683   -1.19223999758005   -1.27419231269215
N          -0.59721006293888    0.16467765765690   -3.02708069071292
C          -1.12957873520314    1.43122111222549   -3.22941990509486
O          -1.35611445966865    1.91984431658597   -4.30738655447783
C          -0.20466791076674   -0.71435152779179   -4.10704193481586
C           1.23642483237183   -0.45794698070683   -4.53353732755719
C          -1.04210988714046    1.25067778700815    0.40568056792102
C          -1.57301425225231    2.47374349609618    0.84940449718674
C          -1.68681211459181    2.68251164585717    2.26846057994178
C          -1.75104172570618    3.86759293471058    2.91831600507138
C          -2.16226715087152    3.97216409890504    4.27465408728874
S          -2.52286245313648    2.53517957941252    5.16406160552930
C          -3.28220671642838    3.39233798547336    6.44958939744786
C          -3.21712348769057    4.77049855076439    6.23092097792766
C          -2.56118192873425    5.10283439397193    4.99658683314307
C          -2.43015584971962    6.47497421348276    4.64524246089631
C          -1.76655573647371    6.90415685362534    3.47696849888569
N          -1.24395347317497    7.32421793307603    2.54487963285469
C          -2.96357698401306    7.44545961617591    5.46809492381806
C          -3.65700865908150    7.09983797672322    6.63806832554901
C          -3.78772441235182    5.79386489389232    7.01920366661313
C          -3.86313218321541    2.64220187608135    7.54482722189617
C          -3.70761107154479    3.08603720829965    8.86461516856367
C          -4.19934684114643    2.30292062079251    9.88276472653718
C          -4.82193816872243    1.07682034867337    9.62226393141782
C          -5.20545530427415    0.47422859063487   10.92134601408089
O          -5.76402719694699   -0.56819356052714   11.14988339346534
N          -4.79006558804902    1.38349985887799   11.88507989152833
C          -4.17519396813851    2.50564983603356   11.35018979877420
O          -3.74164046803910    3.43061487712045   11.98976619194279
C          -4.93880765504358    1.16132379382801   13.30743676830008
C          -3.71327142343152    0.46416383692933   13.88747892026487
C          -4.97714664275579    0.61876630267497    8.33311034433171
C          -4.51226566137857    1.41012122618125    7.27930357442141
C          -4.69061092908787    0.99471223225880    5.89446169972351
C          -4.37269374871976   -0.22384670569059    5.42459449461717
C          -4.29760270908409   -0.61610024441086    4.04076203708986
C          -3.93119313939343   -1.95451578223344    3.76267824452980
C          -3.67386507678272   -2.40219808477939    2.43097064645323
N          -3.33348718014439   -3.69459928129710    2.20991968229182
C          -3.24421303852251   -4.49651430830331    3.22824215939999
C          -3.48366461250602   -4.04898513759032    4.54795998272399
N          -3.81631115266710   -2.81791944636597    4.80049632636980
C          -3.76460297561221   -1.52659771754654    1.32391961986205
C          -4.19604588138625   -0.20800291901498    1.58873464754130
C          -4.44874080833723    0.24693965948911    2.92952606930504
N          -4.81978558794109    1.53457789032621    3.13016270793352
C          -4.97716827073057    2.31604455152643    2.10223142133907
C          -4.78450455247797    1.85064777362918    0.78506492785753
N          -4.39585857245277    0.63410830865611    0.54930559469264
C          -3.42166315079635   -2.05205320561273    0.02148478241106
C          -3.35446950662559   -1.39161253377018   -1.13463065571538
H          -4.72544268366187   10.43137244581843    1.71447833396396
H          -1.54015790727072    9.27094733483455   -2.97139139977439
H          -2.40660011150598   11.48155995904429   -2.07399704932397
H          -6.25766141426608    7.33556996288145    4.64866663141250
H          -5.49897391345080    5.09523357100929    3.75214890925874
H          -2.11652580936438    6.00328263194624   -1.05512575049899
H          -3.37585883124770    4.44532415330216    1.24891118250812
H          -2.26121345798813    3.89352595457649   -2.18611861316879
H          -0.88580677242037   -0.53253103109145   -4.94202902505580
H          -0.31772340453864   -1.74039649520269   -3.74850883412673
H           1.35022210738435    0.56981285546340   -4.87045790848489
H           1.50416786595832   -1.12496950252485   -5.34805640759896
H           1.91143378698446   -0.63444890983138   -3.69924447374006
H          -0.71817494718854    0.50588951493628    1.11699376115321
H          -1.75860927774387    1.77363629338098    2.85717752264097
H          -1.54885736248982    4.79114670845030    2.39836802223812
H          -2.85855059829547    8.48514410143617    5.19554907425950
H          -4.08827684969698    7.88623762256089    7.23781675136288
H          -4.33596789821823    5.53421434940801    7.91095553425478
H          -3.17318955313159    3.99684165177511    9.08437610406716
H          -5.83063665930091    0.54646311288260   13.44959355866047
H          -5.07934172399084    2.13704917944383   13.77881884832248
H          -3.56715137947645   -0.50046042300808   13.40681235297256
H          -3.84937488055436    0.30695680079115   14.95360995238425
H          -2.82653911297859    1.07491979222422   13.73387083956164
H          -5.46525676232847   -0.32193641641716    8.13184884976868
H          -5.03887109831349    1.74795994943164    5.20282374193815
H          -4.04105240437644   -0.99237824533206    6.11049835475004
H          -2.97959937672432   -5.52423822434266    3.01893041083878
H          -3.40323784500429   -4.71650444666408    5.39545377522073
H          -5.27259119431605    3.33687527166661    2.29875448369609
H          -4.95604010392056    2.48745461820266   -0.07209807136737
H          -3.18119250410208   -3.10652064376691    0.04712148460292
H          -3.57259199817960   -0.34188189322872   -1.21110157032165
H          -3.08452041299781   -1.90989571975340   -2.03967046613172
