104
 SCF done       -184.713969237561          0.000706671379
C           1.51681954008918   -0.85550656824653    5.09480288474374
C           1.09088410749670   -0.43865559723728    3.83801234269283
C           0.94947861492878    0.95605113487406    3.54875651871137
N           0.53344209702795    1.34679399565940    2.32406616637182
C           0.26977356766601    0.42653533296104    1.44011622651945
C           0.41058094842292   -0.95061344017835    1.72886747313437
N           0.81047150625323   -1.37135015899269    2.89205271434607
C           1.23393032743981    1.94957433928703    4.52702909120684
C           1.67132848978127    1.49895630807206    5.80066695426726
C           1.80721481179142    0.09500081554721    6.06922573531107
N           2.22375802724443   -0.33778798803270    7.28658427073063
C           2.49307304374821    0.55619641920074    8.19091075120270
C           2.36529730644415    1.93888469698509    7.92918982724331
N           1.96845344340854    2.38818083196472    6.77236053140199
C           1.05633334462385    3.31044245994909    4.14285859408416
C           1.22614862797502    4.42226605117103    4.91021811931939
C           1.03035901810683    5.74021746594667    4.44008400777595
C           1.17395123381739    6.88928520572675    5.19602001012909
C           0.89744542713040    8.02311740996228    4.38698609699544
C           0.57602326733896    7.47643978646185    3.06577883788437
C           0.64643773574089    6.13731601461826    3.08137780218331
F           0.25462013418516    8.23834291772883    2.00966122126912
C           0.90813166944121    9.35750126493154    4.73946713054130
C           0.61866755341300   10.48183817927442    3.92641161117860
C           0.71163267434291   11.63285902554596    4.68917373422284
C           1.08478566760634   11.24308604648711    6.05173563748243
C           1.20149535058175    9.90763454360453    6.06757318453938
F           1.53218598765371    9.15292364654199    7.12378803194735
C           0.48326853381597   12.97127267825882    4.30847554825758
C           0.18146117696769   13.37576961193711    3.04019812841604
C          -0.08672922135762   14.70617878467280    2.66681063866131
S          -0.15750389973950   15.97038190591454    3.86364132986683
C          -0.59094446457114   17.11890685372537    2.66463672921181
C          -0.69674376757275   16.59866031552479    1.41346524513899
C          -1.02326127836433   17.45641267321438    0.23606781201293
C          -0.40009157285773   15.19787983253640    1.38446068335738
C          -0.33794813566022   14.35772884889993    0.23565668812601
C          -0.92093152026397   14.54600776513718   -0.97975762381400
C          -0.73287158202132   13.64442213433641   -2.04998384304671
C          -1.35030306746609   13.77199173415594   -3.26035349341294
C          -1.16567815870983   12.90569827709222   -4.35929590554582
C          -0.30751355515892   11.82696800774542   -4.48303398724986
C          -0.45412415747684   11.25869786004870   -5.77327870820642
C          -1.48121885363713   12.06819773379061   -6.43669997118803
C          -1.90114685151224   13.04430161971456   -5.61880315656658
F          -1.90852563982519   11.84313564045541   -7.68687294123695
C           0.22427546286011   10.18675902595663   -6.31920071992262
C           0.07388144892673    9.60472172816961   -7.60320692557595
C           0.97049808303684    8.55899789348680   -7.74246071814279
C           1.73888861664492    8.45415022212667   -6.49766500741575
C           1.28623143123761    9.40905995297609   -5.67220127479547
F           1.72816286926494    9.65290279995647   -4.42998200906743
C           1.10219492439327    7.74561576334901   -8.88708278135519
C           2.02958671789693    6.75450972012976   -9.01824316228206
C           2.21333076802434    5.88557443915456  -10.12753761219270
C           3.35357873542334    5.03405782299387  -10.12086639398098
C           3.67612110531205    4.18496814201015  -11.22700054896931
N           4.76493171093827    3.38551324152151  -11.15668961847446
C           5.51565179289674    3.44076700361677  -10.09482810452888
C           5.20976267833770    4.29485327287831   -9.01635920939891
N           4.15136901221611    5.05470450871284   -9.03190072444463
C           2.86582880352034    4.16609120085455  -12.38452037348532
C           1.68235693425527    4.94281801826625  -12.35679218019187
C           1.35048452327607    5.78894085980753  -11.25073816082010
N           0.19757153051417    6.48897741437159  -11.27096773921195
C          -0.56946663096796    6.40931559989076  -12.32142697008193
C          -0.22689308184577    5.60179787507280  -13.42435383282096
N           0.85757486336330    4.88263102617282  -13.42828969545918
C           3.15692603654295    3.41996155145256  -13.58613358691733
C           4.30561828848276    2.82294867072993  -13.90541786860327
H           1.62033251431212   -1.90522446489341    5.31484510734686
H          -0.06080522612631    0.76729883649468    0.46781058082560
H           0.19060037583108   -1.70505598564981    0.98508410507899
H           2.82392739652002    0.19343662764843    9.15509788097176
H           2.59562490987237    2.67990238609810    8.68336895918207
H           0.74248007498549    3.42314196621961    3.11428511856365
H           1.52715953387731    4.31305301227911    5.94164595982059
H           1.44880017903652    6.92365262966659    6.23206939881584
H           0.46119347056500    5.47340159799095    2.26080684646395
H           0.35605435289418   10.42620664538108    2.88920347377147
H           1.23449145032339   11.92485282759076    6.86633489875754
H           0.55096761894851   13.71977922312252    5.08859521730334
H           0.12988754166124   12.62871989259724    2.26219379779920
H          -0.73917890195234   18.14085663718382    2.95546561145328
H          -0.93127824027528   18.50551219302725    0.50798621104079
H          -2.04662685161976   17.28353081143997   -0.09600225712243
H          -0.34670718118378   17.24585579193472   -0.58991908797194
H           0.23970490236116   13.45005877305770    0.35665026594144
H          -1.57807729909714   15.38253910504891   -1.15701274232933
H          -0.05939504174776   12.81417375216465   -1.88905547823308
H          -2.04118311180105   14.59414687891937   -3.40435027444565
H           0.37153396147392   11.46779807918795   -3.73620435018925
H          -2.64010718102453   13.79545230417965   -5.82056086214955
H          -0.62737843774480    9.92591182027637   -8.34816688345381
H           2.51125633403165    7.73962626843365   -6.29414614432557
H           0.41768671450594    7.93850292865781   -9.69993845298677
H           2.74495110687187    6.59293417753697   -8.22358854161232
H           6.37305853622276    2.78105707440259  -10.06980474829989
H           5.82469093344187    4.33216888813497   -8.12709931446247
H          -1.49136153490893    6.97482578955759  -12.29435245103930
H          -0.86412934309644    5.52901415190932  -14.29576990593211
H           2.32848410229782    3.40025291149269  -14.28240450195919
H           5.16273202174386    2.85053907823909  -13.25752445861657
H           4.40411618609335    2.28644722002329  -14.83435644005689
