90
 SCF done       -157.689110646938          0.000245687682
C          -3.08751644593850    0.67846440297974    3.02287321936885
C          -2.31024945415253    1.54249022365930    3.78624625987886
C          -1.52158793622632    2.55671688987907    3.15370027825058
N          -0.77123291026260    3.39041007234059    3.90736936173095
C          -0.79105092060012    3.23643381046108    5.20056840326613
C          -1.56781302619787    2.23178271956216    5.82286763143604
N          -2.30644742852022    1.41003923700237    5.13811032899422
C          -1.50665728182576    2.70833412284875    1.74109053186141
C          -2.31245708751277    1.82008621224616    0.98355893652677
C          -3.09520204794657    0.80911389512636    1.63780408988880
N          -3.86080643246866   -0.04632570050037    0.91256524378771
C          -3.86037131529954    0.08402226511823   -0.38060324278942
C          -3.09679786859966    1.08154202069919   -1.02741324226875
N          -2.35063822414965    1.91726059018756   -0.36280158964874
C          -0.67510015990866    3.73328928183217    1.19950850683104
C          -0.48847825476727    4.04240106698151   -0.10664998280842
C           0.38928391085789    5.06026961289092   -0.54516159073632
C           0.66803353245370    5.40807475798135   -1.86112647636977
C           1.61887207168281    6.44602020062894   -1.97256878507160
S           2.35671017795939    6.98234414538962   -3.48048917901054
C           0.94609574095627    6.69689950650574   -4.59750177632901
C           0.62268407824424    5.22369648670377   -4.66854049895115
S          -0.20299617470407    4.60889806802659   -3.15819038676349
C           2.04666242695459    6.91879020801818   -0.74476041682461
S           1.32006097380928    6.03295018181026    0.56337211874526
C           2.94812079047481    7.99395773271385   -0.46142381211808
S           4.12818042184781    7.84221489899065    0.80171904557302
C           4.72681114393926    9.41718275628683    0.46281268282457
C           4.07782012128990   10.03532283623229   -0.55867660322040
C           4.39829333893234   11.42129111298341   -1.01065835710598
C           3.03095709762093    9.22495192011785   -1.09446411457631
C           2.07826603386239    9.59748055868101   -2.10911920503875
C           2.32986781713544   10.32527396038650   -3.21338140866535
C           1.37844176478879   10.51825336163108   -4.26660537371052
C           0.03687059020967   10.47484349715541   -4.12267656191434
C          -0.92812551267362   10.56661508699203   -5.17064558246082
C          -0.83927801762350   10.27245388586859   -6.51462217735574
C          -2.03905887565615   10.48259125622900   -7.22957605176407
S          -2.18770943212093   10.17821251430946   -8.94404208651840
C          -0.51258774984488   10.63920718134474   -9.63031614571799
C           0.57279795542926   10.93426284435117   -8.63259528230181
S           0.60806967221511    9.66396961725625   -7.31808268310812
C          -3.07254188491437   10.95329465548979   -6.42035341088506
S          -2.52078606033264   11.15931624959400   -4.78061695157078
C          -4.42579515180625   11.26956974900437   -6.72495670255591
C          -5.11769195382517   10.74736116281058   -7.84038988931122
C          -6.45261755304468   11.16584429477806   -8.16702135511743
N          -7.06089208390031   10.62505036352904   -9.24649618636988
C          -6.43090474344503    9.72096011596738   -9.94079166545249
C          -5.14349530733643    9.27687742628599   -9.59058307788005
N          -4.51656510750078    9.78975551378002   -8.56677366175854
C          -7.13947892538466   12.10592031913474   -7.36888033434482
C          -6.49322095566007   12.53152915473568   -6.18434795917196
C          -5.16886008102524   12.10682755120575   -5.85782129536605
N          -4.59544360534546   12.50089576244438   -4.70890852304632
C          -5.25681040975677   13.28817621821216   -3.90717593024060
C          -6.55291082501343   13.73020187507534   -4.23970896942562
N          -7.14704767498802   13.35952393140008   -5.33793571355993
C          -8.45281707486766   12.64119747204878   -7.65010323941528
C          -9.16654188384510   12.49058257074451   -8.76514134191258
H          -3.67759919095814   -0.08752780803206    3.49794078393186
H          -0.18216673243302    3.91779723062687    5.77989050032218
H          -1.57363644307486    2.11374728741496    6.89865335675413
H          -4.47489001478865   -0.60718645710794   -0.94241852533511
H          -3.10386740103194    1.19050231923305   -2.10402463310981
H          -0.13704599050903    4.30266502751869    1.94864518325779
H          -1.01299926303858    3.49403849239962   -0.87642366109317
H           1.26758907773190    7.07508476964768   -5.56778319822930
H           0.09930061850383    7.28785001609419   -4.24794512924949
H           1.52657830648975    4.63529871783890   -4.83009730138854
H          -0.09235764607513    5.01643928494969   -5.46531101024978
H           5.53543758677143    9.80402803116938    1.05142923564891
H           4.93517201849865   11.95574895541835   -0.23058889914207
H           3.48567855532837   11.96163813305767   -1.25287501146031
H           5.02874309813894   11.39663565635141   -1.89926779900545
H           1.09603328790465    9.15770577303797   -1.98658986007708
H           3.33218986444086   10.67750904467407   -3.40535697943917
H           1.79778590261062   10.69797483490231   -5.24603445711713
H          -0.38935423303249   10.42508866805683   -3.12859446692333
H          -0.69313648415619   11.50366736395036  -10.27018428943650
H          -0.24327863145632    9.78500850795917  -10.25089983416274
H           0.42839574669719   11.89679632711916   -8.14046686099089
H           1.55223391036280   10.91317151526544   -9.11013715896332
H          -6.95781645188840    9.30842419669471  -10.79099212009787
H          -4.62783721984447    8.50117534268462  -10.13814067689624
H          -4.76801555525808   13.57488988381360   -2.98688496276205
H          -7.10769362075427   14.39075679732587   -3.58687836500100
H          -8.84211789015836   13.24409998877995   -6.84010285430167
H          -8.80777977965055   11.91665127661909   -9.59963540254052
H         -10.13874124689957   12.94557713634259   -8.85698342124767
