118
 SCF done       -193.173219345742          0.000800426706
C           0.11546652203806    1.27193374120996   -2.23301434071912
C           1.35025240433149    0.95833838071847   -1.84735962489456
C           2.50948290669662    0.78314297828513   -2.69852162668204
C           2.46089171704172    0.63508709374278   -4.10123551818153
N           1.26933630388775    0.54368192001525   -4.73753445428781
C           1.25994508093960    0.45687136916430   -6.03463003803491
C           2.45335974954184    0.45571324771211   -6.79474101359260
N           3.62017556349320    0.49335228418096   -6.22592211715889
C           3.66850511338653    0.57091303791261   -4.87406516228553
C           4.92828248565381    0.62110161030779   -4.25803605578235
C           6.14511138761063    0.71638263820071   -5.07055883569546
C           6.75917157052112    1.92970628791519   -5.27129255169338
C           6.44864788365946    3.24101811120397   -4.80065871962145
C           5.31496146961706    3.64753119925132   -4.18870102577454
C           5.07644757906226    4.96228130652699   -3.70049901598109
C           5.87678458472277    6.10491197974314   -3.73393527907610
C           5.15677497010190    7.09850386855312   -3.06873395678204
N           5.20021532728588    8.39496397388333   -2.64922476543904
C           4.04523679331689    8.65823445303066   -1.94789363767779
C           3.87280735198703    9.90384813331623   -1.20150617110597
C           4.09203238294625    9.88735303074003    0.16241544719385
C           4.52873015942911    8.74710385065637    0.88454695992751
C           4.79191776962410    8.69674789509870    2.20933670525709
C           5.27791080228845    7.54913220602263    2.91417153694329
C           5.43427503795020    7.65822425731809    4.32048597814881
N           5.12442011788306    8.82889955276784    4.92219369381826
C           5.26876969376718    8.91345922167764    6.21327441473686
C           5.73461719849410    7.82507343168752    6.98819253013837
N           6.04716380151787    6.68320587839773    6.45229167055318
C           5.90950582489613    6.55931203869943    5.10665820288608
C           6.23672487677229    5.35129604440556    4.50117351550042
C           6.10710928789952    5.22155752921018    3.12236450188733
N           6.44997755337556    4.03833464278798    2.54985308073538
C           6.33857542450763    3.92951926375751    1.25980714702868
C           5.87519683492457    4.99761283227342    0.46009944551464
N           5.53639837739569    6.14290037747577    0.97815636824246
C           5.63039382768909    6.31078298755025    2.31600976991661
S           3.85126407624555   11.45226018222338    0.89797031135844
C           3.45403795738595   12.15041097336131   -0.65219577884791
C           3.11873791398826   13.47901314108290   -0.83727136625014
C           3.05193257382726   14.43503757106675    0.31569269809476
C           1.62968995467502   14.50705005626874    0.87442507854759
C           2.79157269854804   13.86263362949226   -2.14129757764352
C           2.38824617686073   15.14559709353159   -2.61948424969556
C           2.12684752721203   15.15688603509297   -3.94179974725072
S           2.35144906700907   13.62211001537812   -4.70590800247451
C           2.82250858342191   12.90496889877776   -3.18281337525538
C           3.16859751951488   11.57624305691867   -3.00563313228203
C           3.18897169679466   10.64399455423533   -4.17944374681272
C           4.48065909985946   10.80101265367351   -4.98478348383265
C           3.50368342611745   11.18919293926042   -1.69894410873771
C           3.23919662253509    7.53435210457087   -1.91876185780305
C           3.93214542684914    6.54971058882435   -2.63828862595093
N           3.89577879451159    5.25302054292132   -3.04034551698214
S           8.15212994113663    1.78859261182519   -6.32138399073185
C           7.90245002031226    0.07584223828998   -6.50114313409063
C           8.70398832360224   -0.74481048804406   -7.27308205637016
C           9.88279611368930   -0.20111279043037   -8.02403193317985
C          11.15659067063552   -0.30652939693090   -7.18378260117291
C           8.38570800250972   -2.10495895885579   -7.26855964706062
C           9.03414129760957   -3.17828968903974   -7.95156169322786
C           8.47569033810893   -4.37787931262011   -7.69798682894905
S           7.12884144996030   -4.29864641310139   -6.61410681305806
C           7.30040026727549   -2.56237664606782   -6.48572168484808
C           6.48954537961744   -1.74146582824076   -5.71943878791248
C           5.43672045907305   -2.35963809318531   -4.84890916653051
C           6.00816635294017   -2.64666250933031   -3.45857545007876
C           6.78615140952125   -0.37040332021491   -5.74557663698663
C           4.98405023354054    0.67897859083021   -2.85992508563721
N           6.19605506748164    0.66377862609370   -2.25289552989253
C           6.22580965337064    0.73868454582551   -0.95606928507940
C           5.04105232588892    0.83514043590157   -0.18623956156610
N           3.86312086865847    0.84377222604345   -0.73573567279264
C           3.78236745459478    0.76141118133229   -2.08626619648427
H          -0.67465401528483    1.38118612400511   -1.50902502570521
H          -0.13971493686553    1.42314213606662   -3.26640993225563
H           1.57762505367274    0.84844301650611   -0.79504002392430
H           0.29114673289330    0.36662639122974   -6.50824256889851
H           2.43670293450401    0.39712329013043   -7.87456069660677
H           7.22148066099812    3.97543317052680   -4.98378914925403
H           4.50183835248373    2.95173980557305   -4.03706129113365
H           6.84612085205834    6.18155751028827   -4.18269404034714
H           5.96980671725476    9.03359969330426   -2.74614976640489
H           4.67233457439818    7.85565447659327    0.29269927434185
H           4.63345211382817    9.57202263663019    2.82672918936684
H           5.01642262524332    9.86154695331432    6.66949078669437
H           5.84929936121364    7.90964444893020    8.06089625762035
H           6.59143526063220    4.52387896245194    5.09298205628157
H           6.62510114626721    2.98471295675278    0.81748492725134
H           5.79183464910942    4.90701465048098   -0.61534269522699
H           3.37189843940364   15.42793170952909   -0.00434625938818
H           3.72929424254653   14.09453216917428    1.10195387748179
H           0.93421852365267   14.83692120040917    0.10572682252943
H           1.58572847591203   15.20382483030741    1.70780820459666
H           1.31531580383180   13.52691567650458    1.22512228217101
H           2.29665007062051   16.01427733043801   -1.99313383699992
H           1.80772392765804   15.98507530557170   -4.54441204750616
H           2.34172819291545   10.87903066264422   -4.82895693777389
H           3.08687621862576    9.61386173886283   -3.84034113688719
H           4.53731024467122   11.79644025852390   -5.41885629992996
H           4.51303991533261   10.06956001828886   -5.78814780491204
H           5.35069936455052   10.65704177329173   -4.34859714059352
H           2.28117872124893    7.46466801580682   -1.44410835518268
H           3.15942781349122    4.58847413641807   -2.87404390946034
H           9.69852932995741    0.84825968625841   -8.26530607647726
H          10.01326205429461   -0.74866793587867   -8.95884605089185
H          11.04421737583899    0.25996955144187   -6.26247572065829
H          12.00669202316518    0.09031576475608   -7.73363136003489
H          11.35930822455961   -1.34417884677344   -6.92771604428049
H           9.88159949076591   -3.04774725922381   -8.60003466566585
H           8.76810752110512   -5.33731756239884   -8.07855752581844
H           5.10702625716288   -3.29847730015541   -5.30116373053793
H           4.57110940069988   -1.70669840173431   -4.76195763317275
H           5.23899335813839   -3.06236897623215   -2.81113933061047
H           6.39020653874894   -1.73242727087334   -3.00973917331053
H           6.82524472378832   -3.36096715889776   -3.52950350773163
H           7.20100001850566    0.70303809068919   -0.48812352941301
H           5.07310116414307    0.88966286837870    0.89415676876636
