98
 SCF done       -163.831765115389          0.000730587889
C           0.16844596194948    3.24607574562326    5.62209061845138
C           0.47572456495502    4.60039255926882    5.70849671590081
C           0.68275104237671    5.39096388363623    4.52727629718063
N           0.93574059326707    6.71005452633083    4.65199858642511
C           1.02726938331316    7.21805745317467    5.85038263003158
C           0.86441565526316    6.42960529911005    7.00892723980727
N           0.58247342117532    5.16159949904308    6.93973325525584
C           0.60289975110845    4.79583254704077    3.23970673600599
C           0.24696823982527    3.41923389182516    3.18037009997532
C           0.04089223439968    2.65139318909362    4.37130786829859
N          -0.27083622747287    1.33224949848335    4.29415117032056
C          -0.37666732519377    0.80477707090575    3.10980456697332
C          -0.19321290820944    1.56479795779487    1.93369163082901
N           0.10948300295212    2.83313592268277    1.97176364520167
C           0.84871032984273    5.46115662608995    2.00569770994353
C           1.35717907928115    6.71461604957863    1.85167235013931
C           1.58977828883240    7.39346336997210    0.63922638741519
C           1.14215347306894    7.19275656948547   -0.68359054738888
C           1.69588090928135    8.13689901441449   -1.60088381521822
C           1.37639518810240    8.05815978448760   -2.96863405886982
C           0.51397023087625    7.09105032230386   -3.40521354563825
C          -0.07519840317298    6.19539098650884   -2.49717718105656
C           0.22111554890999    6.24129800901734   -1.16193053400481
C           2.55087801540604    9.07475342583649   -0.98623973411723
S           2.64632560211037    8.77402503651535    0.71414583104640
C           3.26808025405485   10.10746542166090   -1.61978810388882
C           4.15060598961144   10.93371615641166   -0.99331693400006
C           4.93928378868941   11.93461501528992   -1.60759088229503
S           5.61746837884743   13.18625215172727   -0.60227727991154
C           6.27431282607955   13.97753103474604   -1.97709703513100
C           6.00491781414892   13.34298818246043   -3.14935877377600
C           6.52300313739939   13.83206641763102   -4.46176603215935
C           5.24621234515206   12.14745395354980   -2.95545719565164
C           4.90895591786069   11.19138719171363   -3.96987848446792
C           4.57529347635549   11.45491167010642   -5.25603892537268
C           4.18553609526554   10.44235110526177   -6.16567156313031
C           3.79560111146710   10.68902038308933   -7.44624180635632
C           3.32528544963955    9.71536103017024   -8.34695078069144
C           2.98492225371652    9.89034988030435   -9.70396206047659
C           2.50773698463931    8.69761361541758  -10.32771845784295
C           2.21740193549115    8.72420718125132  -11.70488001296820
C           2.34055564336360    9.89429729864760  -12.40428400731756
C           2.76349346714465   11.07654348135003  -11.77566712522353
C           3.09432217958546   11.07793745435091  -10.44898661365385
C           2.44141053353097    7.60546877547946   -9.43438146098526
S           3.05289017139449    8.07264879517692   -7.87255427393482
C           1.97365650988021    6.28327789957930   -9.55257470550265
C           1.22285347147781    5.77129751650406  -10.56891339065586
C           0.75435543729652    4.43770625513286  -10.70631028256328
C          -0.06867339629962    4.15148538819169  -11.83163940734275
C          -0.66186997923789    2.86618916063927  -12.01661772352014
N          -1.44680147939089    2.63669436462627  -13.09612082355473
C          -1.64324022740164    3.60949509356783  -13.93880935491920
C          -1.05564376947386    4.87682944206993  -13.75626517080399
N          -0.28816548729182    5.13237514058975  -12.73305394511890
C          -0.46358871364317    1.81869990676740  -11.08740072181687
C           0.41927417010461    2.06947555542552  -10.01310776382735
C           1.02177936274232    3.35960375077137   -9.82055394958090
N           1.85614837888500    3.55509529700729   -8.77978462368900
C           2.08796799581544    2.56874976329248   -7.95793676537201
C           1.51488266508898    1.30013871897970   -8.15800288504671
N           0.71738944277715    1.06377622806641   -9.15983162455507
C          -1.17332215577433    0.57941319104751  -11.30785744033610
C          -1.31625277173272   -0.43569631280759  -10.45629502508540
H           0.03653394993139    2.66313392516688    6.51829953606030
H           1.22020694168804    8.28112263023799    5.91123243926294
H           0.94895390952370    6.85875567647010    7.99878669076004
H          -0.62353717127088   -0.24790179496077    3.06419397840369
H          -0.30532917185835    1.12182308602741    0.95282943143898
H           0.65502380878786    4.84370213404134    1.14156162322597
H           1.65885890650448    7.24613377840074    2.74417254154234
H           1.80684999550895    8.76131420331037   -3.66538186255618
H           0.26725442379622    7.02028187411860   -4.45397899933324
H          -0.77838726488994    5.46311509264697   -2.86492852969026
H          -0.26229601657357    5.56451430807348   -0.47802156382821
H           3.06861635136304   10.24073958950224   -2.67194747462855
H           4.24949358999285   10.85282167428494    0.08275589288493
H           6.84039916375006   14.87824007915470   -1.84028114168175
H           7.36769365308708   14.49881146445277   -4.30419733594854
H           5.75222806371886   14.38641010559941   -4.99729110403172
H           6.83980847518090   12.99571188865786   -5.08145753279665
H           4.90602209786320   10.15699125362799   -3.64667238651693
H           4.52428144484283   12.47444596061902   -5.60893923910131
H           4.17800714336037    9.42029551688085   -5.80634245362811
H           3.83512657354847   11.70563112950790   -7.81459576905255
H           1.92340483969533    7.82368124880988  -12.21628663403431
H           2.11761023282036    9.91230012914958  -13.46060233202184
H           2.84392550156795   11.98419050125501  -12.35498068727803
H           3.44709490436441   11.98008674872609   -9.97328650502609
H           2.20953865865692    5.63058572369652   -8.72323984780812
H           0.88478295856064    6.41623679927694  -11.36523768120577
H          -2.26924667444941    3.39374996882627  -14.79470250813977
H          -1.20694974828632    5.68091432322176  -14.46430537021204
H           2.76273034785078    2.76916267289157   -7.13605137800551
H           1.73424018250788    0.46690050822123   -7.50296364978609
H          -1.65112698994967    0.53652862804673  -12.27812015824834
H          -0.88321742047500   -0.42189718386917   -9.47287866318093
H          -1.87107052017248   -1.31447443756322  -10.74034183638914
