136
 SCF done       -243.401264189711          0.000671576216
C           2.62308460391096   -1.79078730769958    2.15283400445916
C           1.27270842268499   -1.56879527765061    2.39606689964530
C           0.73506861878230   -0.24268365575065    2.33132914053996
N          -0.57769781153996   -0.03722355919738    2.59183228756632
C          -1.31734982971054   -1.07061663168822    2.87018290522008
C          -0.78867866186328   -2.38385040948679    2.90522557549590
N           0.46832735865329   -2.62460544041652    2.68489612001566
C           1.54950767579254    0.86766001942008    1.99944090643714
C           2.92881562515488    0.62604166194086    1.80305319647425
C           3.45169418549208   -0.71024807124663    1.87020527009413
N           4.77077615682158   -0.94591448895066    1.64936943698446
C           5.53529264359675    0.07114699233398    1.38976130356292
C           5.03160644523621    1.39316240420797    1.36312876258214
N           3.77336252472218    1.65598833813539    1.56516038922609
C           0.90772805949647    2.14919956838392    1.88153686333828
C           1.44903830495950    3.29391417424987    1.43041422887121
C           0.68571061843889    4.52393136994583    1.28994306116694
C           0.74360599200114    5.19646777490859    0.06095155433034
C          -0.05470357497815    6.28349658608702   -0.22355134135971
C          -0.94354273332377    6.77134256959007    0.72804513575801
C          -0.97470965129107    6.16679273328105    1.96253850805361
C          -0.15910551544739    5.06675190884304    2.25857608669674
N          -0.31905709258727    4.72378440652048    3.59814420593899
C           0.52715995109341    3.85523364953699    4.37312913614417
C          -1.23192342813621    5.53216967903424    4.21374705639972
O          -1.52750565699904    5.47444833849353    5.38711398396774
C          -1.75167014532156    6.53443244824200    3.18624091341258
C          -1.43177031540331    7.95633981311666    3.69451989693345
C           0.02185644301055    7.98002063675488    4.17886597079249
O           1.01237061030888    7.73493453899720    3.52914721774298
N           0.01175800728354    8.29549196087199    5.50645211208262
C           1.19487467087329    8.34365745291602    6.32165126489336
C          -1.27539058356395    8.50237898257210    5.97118271402702
C          -1.67958873372337    8.83104841263389    7.24634973791211
C          -3.04789793121644    9.01821531134074    7.46923186221900
C          -3.96297540634451    8.80772762268885    6.43489161321149
C          -3.54126703543409    8.45746681810206    5.16254282671755
C          -2.19139550225208    8.32628357457769    4.92729419028899
C          -3.55053562655687    9.38940510079629    8.77879894351529
O          -4.81762940812117    9.07101181574429    9.07789466131566
C          -5.07078279995293    9.42478812561496   10.35881904122786
C          -3.94025203473956   10.00552028029939   10.91063542260454
C          -2.96069646956418   10.01275172714107    9.87230994182218
C          -1.65950040519365   10.72580619983804    9.88226387872541
F          -1.33284721191953   11.22839318450163    8.67768950204346
F          -1.65510566500912   11.78398605947405   10.70921934975667
F          -0.61021843468229    9.96046441163692   10.26072824738944
O          -3.91249609392017   10.46096414464736   12.17944702943686
C          -2.71162944007724   10.33058058916116   12.92784466185436
C          -6.37540192183040    9.27228657619943   10.93279787356706
C          -7.45853611588157    8.98775704102603   10.20295337711697
C          -8.82771369108343    8.81666060781956   10.68558930011876
C          -9.44765598265869    7.59789647006405   10.37787646589464
C         -10.73966397203299    7.30219247853005   10.75694166357250
C         -11.51738374672346    8.26807085592527   11.38500140382262
C         -10.94970665070809    9.49427591116464   11.63835002099577
C          -9.59990977102150    9.76327915448653   11.35680055035649
N          -9.29773558665118   11.04642352277451   11.80420066786610
C          -8.06591903173608   11.77132236706612   11.63613402105751
C         -10.39429183663519   11.65812217498690   12.35617483984016
O         -10.38652899892482   12.75044334561376   12.87287420730466
C         -11.59752643776241   10.75885397776311   12.10794090396602
C         -12.39808080040039   11.40477174791258   10.92600893809040
C         -13.30026662257688   10.32452464362352   10.32802098567962
O         -14.32083665340820    9.87457537433773   10.79194632408744
N         -12.70845305826523    9.89813436671264    9.17002917996532
C         -13.20939461469388    8.81566262319066    8.36970052117591
C         -11.59156530146143   10.66131811728909    8.85541737143596
C         -10.69326054016566   10.50395915233212    7.82226192789605
C          -9.65009246535547   11.43038961350891    7.71139731959567
C          -9.59458702519166   12.52238399029094    8.57881224852296
C         -10.48753264938968   12.65279102611784    9.63140923820233
C         -11.45169799819149   11.68504065120275    9.79995319483261
C          -8.60894023660080   11.26584689702311    6.69741088169790
C          -8.91103486161414   10.88456815961198    5.37892544041509
C          -7.87902983360002   10.76164103677934    4.39343038037747
N          -8.19835001421417   10.37011668881959    3.13537273865756
C          -9.44675185544131   10.15217039468961    2.84959090267346
C         -10.47006667565593   10.32584604704707    3.81084063199650
N         -10.20551815514105   10.67216515711982    5.03423432315770
C          -6.52792639775067   11.05566590637489    4.68684718389405
C          -6.22921157701300   11.44070435447435    6.01098377469841
C          -7.25776124001916   11.50978341928289    7.01085977428281
N          -6.92880896547347   11.79192511948688    8.29674637303480
C          -5.69361633531689   12.08691346482774    8.57346515625790
C          -4.69739559388758   12.11086496513856    7.57027471615997
N          -4.95895136249843   11.76885340140018    6.34516144914064
C          -5.57180332758454   10.95896523430971    3.60365965265485
C          -4.26363932675961   11.20714180357907    3.64575319578258
H           3.02445803197652   -2.79021223437768    2.17637808537714
H          -2.36032149202540   -0.87858866657461    3.08464679812898
H          -1.41825668493331   -3.23449125166466    3.13042014135878
H           6.58247055827943   -0.13486399309489    1.21188479714273
H           5.68238756441985    2.23967021999361    1.18730120357809
H          -0.14223463979017    2.12972050532979    2.14358354848299
H           2.46245582345107    3.30079271181143    1.05672107161669
H           1.41689689306535    4.81603713132996   -0.69297676201095
H           0.00984893986316    6.75798712583556   -1.19065138672784
H          -1.57749133957435    7.61683998702181    0.50776511184647
H           1.56886066467298    3.99905512781236    4.08672140116139
H           0.26023396427618    2.80572262577542    4.24122664857473
H           0.38675219354706    4.12621269597107    5.42062746454672
H          -2.83211907998763    6.43561098326544    3.05331854078688
H          -1.57586717310473    8.66805305972628    2.87772290978413
H           2.04868984180076    8.15931325317867    5.67069877383230
H           1.15436576081813    7.57601265214539    7.09703092391230
H           1.29475776058165    9.32466387278686    6.78906174409602
H          -0.96438827719864    8.90632941249715    8.04669187551461
H          -5.01571200816683    8.91952957616168    6.63857439406084
H          -4.26327249774923    8.29863613224612    4.37680515380973
H          -3.01145137439752   10.05805753068972   13.94015383346151
H          -2.17184250339589   11.27894464875080   12.95854065305844
H          -2.06480744702921    9.55082226931125   12.52198277555828
H          -6.42121319408203    9.43185789614327   11.99866273841221
H          -7.32607714993442    8.78960283673051    9.14608301472372
H          -8.86552715784945    6.85763083394110    9.84811936623020
H         -11.15597668226879    6.32979670180730   10.54226935586944
H         -12.54584504045471    8.07128507307475   11.64409529535877
H          -7.74756697804425   11.72821251148666   10.59464835906840
H          -7.27855413766266   11.38224807426932   12.28199404426002
H          -8.26974050406282   12.80413953235753   11.92029121923691
H         -12.25098647234548   10.65269174095271   12.97315405866169
H         -12.95220437772780   12.26656326290855   11.29743087224544
H         -14.14469137868974    8.48192673749063    8.81733726897154
H         -12.49512737377412    7.98913362567578    8.35922051638619
H         -13.39090281216563    9.15052056413219    7.34694488303219
H         -10.76473089843827    9.67908871017220    7.13434746106368
H          -8.83818574129643   13.27586114517177    8.43109278392014
H         -10.41168780878858   13.48444928513584   10.31447376343448
H          -9.66869181544244    9.83421111113252    1.83952810722718
H         -11.51149793146176   10.17184179040720    3.56092586116232
H          -5.46059753237358   12.30137111511447    9.60840708017532
H          -3.67622234724401   12.39296707157885    7.78834542971439
H          -6.02862490977121   10.64506313515766    2.67387085153194
H          -3.76823542139746   11.52509942924469    4.54417269649179
H          -3.66157230251057   11.09852805554541    2.75857047461498
