120
 SCF done       -193.695744126449          0.000191760430
C           2.00772522248088   11.54499837101379    2.58667255172487
C           1.36569402579175   10.49796786880387    3.23966995620941
C           0.79857389288071    9.40144071159385    2.50511181945672
N           0.17530138436111    8.41135483903694    3.18138891298761
C           0.11228315570032    8.48147907447985    4.48005288892979
C           0.67778743198403    9.55887995859868    5.19789841081678
N           1.28456004671685   10.53678681954578    4.59462299880805
C           0.87917786904263    9.36560658600173    1.08897196734314
C           1.53011011317049   10.45216716816754    0.44800855379891
C           2.09390003931860   11.53329419658539    1.19922002875566
N           2.71735494243549   12.56108726224279    0.56665902191769
C           2.77872353028692   12.52258265022833   -0.73078807786806
C           2.21793082874806   11.45832520700258   -1.47556906576969
N           1.61419789567514   10.45790407196530   -0.90151396601059
C           0.32287229558481    8.34458995926608    0.25624478108076
C          -0.30205378690096    7.22146148211930    0.67774925482777
C          -0.89970701340287    6.26507821220903   -0.18622403813463
C          -1.74909663141509    5.23286642437026    0.18365009324216
C          -2.10512112596573    4.38434610457613   -0.92038699683645
C          -1.46644900059095    4.81151119785841   -2.11816128062450
S          -0.52834066786990    6.26158592862839   -1.88950512132963
C          -1.58778232488932    4.18517383581667   -3.34685698955944
C          -1.06517358796521    4.83689365777033   -4.59670050571594
C           0.41219052333310    4.55841802755557   -4.88062073772873
C          -2.26149349782738    2.95947716180700   -3.34327152724688
C          -2.92495126731106    2.54204993833768   -2.16597313190967
C          -2.96187920697342    3.27200843323064   -0.98645618250817
C          -3.99988812068995    2.91875490854131    0.03542732588620
C          -5.36124198833776    3.44842141562464   -0.42681539157936
S          -3.71649543039351    1.00496972277884   -2.41053668399137
C          -3.13796094763961    0.93394585792522   -4.03542392458008
C          -2.41763544458624    2.01378261072389   -4.40035411474026
C          -2.18736612232760    5.17304408976075    1.56911078462573
S          -2.88341530090505    6.63257288792056    2.22535669687713
C          -3.04704919016207    5.90972391247031    3.77372189519073
C          -2.61927812185069    4.62435383212515    3.80158907609735
C          -2.64305034374512    3.76982310851748    5.02563328112308
C          -2.12288741601830    4.17874046629126    2.53011364501747
C          -1.79963390403052    2.79409165851797    2.31524515466874
C          -1.12725290943833    2.21919864895860    1.29523412668884
C          -1.30539945013197    0.83306595788256    1.02716362643136
C          -0.84245650494590    0.17066194547978   -0.05619073729811
C          -1.38172920625844   -1.07881109199901   -0.47909092093694
C          -0.93569790161931   -1.95507038647105   -1.44485574033592
C          -1.86697259984887   -3.01292960997478   -1.72630545631414
C          -2.97736895738691   -2.97408485788853   -0.84825072333231
S          -2.89594211484618   -1.60686932271674    0.22496010082450
C          -4.02296104404736   -3.87784112101841   -0.86397819020857
C          -5.18470644176302   -3.73670888929114    0.07308787445379
C          -6.28593163789349   -2.88749268005146   -0.56483681501690
C          -3.96809514647210   -4.86736142560189   -1.84826611505563
C          -2.90709959073786   -4.85922923766168   -2.78426683524369
C          -1.86179222592573   -3.94916386153056   -2.77206206278348
C          -0.89939908745702   -3.91469603562933   -3.92393244288285
C          -1.20161913953599   -2.71669187370973   -4.82702815378758
S          -3.11079444774705   -6.13783461507547   -3.96186957803918
C          -4.56588737914917   -6.66008421049227   -3.18486503573280
C          -4.89860147360341   -5.91800153290175   -2.11092416180450
C           0.44030188453978   -1.95798666595163   -1.92847717079667
C           1.23031988297487   -3.09171339986731   -1.66095901604646
C           2.56857269862278   -3.18736250425850   -2.15683980279471
N           3.28665632864358   -4.31200407357759   -1.92112787630731
C           2.73627016988189   -5.26441708668466   -1.22807129924683
C           1.43118280102162   -5.14303587490412   -0.69634138121190
N           0.70392457434847   -4.08735136982597   -0.90769582136744
C           3.15890424797903   -2.14122446930489   -2.90142113883426
C           2.39226947913128   -0.97188429816074   -3.08648060063861
C           1.03714909466254   -0.89525689988280   -2.61678019306341
N           0.29266190163231    0.21279084599335   -2.85143151440775
C           0.85438805665385    1.21373864702301   -3.45960082338939
C           2.20548784057848    1.16507805364369   -3.87095722493699
N           2.93875412123362    0.10598047977101   -3.69673894199791
C           4.49965729965209   -2.34626678376393   -3.40740954884980
C           5.14848333917068   -1.59526668715987   -4.29502815179442
H           2.43188371632275   12.35751896087094    3.15277968027072
H          -0.39869363063766    7.67062123687087    4.98345063644704
H           0.62172220282119    9.60801083689140    6.27750790325499
H           3.27802049391297   13.34785684753249   -1.22136331492590
H           2.26912725044418   11.43968350545734   -2.55621895588761
H           0.41115952920388    8.54022828859202   -0.80541507746675
H          -0.36614051396961    7.03465445144697    1.73805791852605
H          -1.19366045463682    5.91677763758587   -4.48318017043093
H          -1.66443023049844    4.51420240473192   -5.44994716687212
H           1.01264643949954    4.74649438902836   -3.99344755397918
H           0.76293035400503    5.21182938280581   -5.67596677459925
H           0.56181833857656    3.52969646560055   -5.19906029158605
H          -3.77194171520117    3.35319836690750    1.00215244500047
H          -4.04965152281610    1.83235593965635    0.14006461692269
H          -5.32707914279082    4.53082956889399   -0.53297396095202
H          -6.12582894209591    3.19562426002429    0.30347375570365
H          -5.64041962036456    3.01521974109174   -1.38413246441292
H          -3.38089667597766    0.07372386243062   -4.62857616631412
H          -1.98281995449365    2.13247380859994   -5.37678853588936
H          -3.46132741116100    6.48407855020801    4.57902303113198
H          -2.93498955377310    4.36021520059187    5.89043876222708
H          -1.66071353849678    3.33705042380175    5.20862065936985
H          -3.35771348722732    2.95452397945176    4.91058161205176
H          -2.27378969480880    2.12467418827107    3.02390334824181
H          -0.54660268871273    2.80566391495222    0.59865460939978
H          -1.99246082676346    0.31232544372553    1.68512733866704
H          -0.12035226665414    0.63515978544568   -0.71054673728348
H          -4.84518869510931   -3.25216223722374    0.99137604651984
H          -5.58050169993040   -4.71997392096609    0.33129991943382
H          -5.90240997794152   -1.89903529708736   -0.80730526656678
H          -7.12374734316054   -2.77713639821159    0.11940419421944
H          -6.64223658432871   -3.35350351125476   -1.48094994667901
H          -1.00870801346902   -4.83497753706949   -4.50250566968514
H           0.13348940538175   -3.86066211378545   -3.58429598834932
H          -0.50829582324863   -2.69310261687886   -5.66493516242390
H          -1.11187060016024   -1.78434777653072   -4.27377659203915
H          -2.21468336777557   -2.78990490290948   -5.21743181989062
H          -5.08817616960057   -7.50273140148250   -3.59469398808126
H          -5.77479233063531   -6.10145729422807   -1.51561191259265
H           3.33238006030565   -6.15185555507851   -1.06149776735593
H           0.99568386992506   -5.92080466352173   -0.08359907785509
H           0.24077802204595    2.08972818703356   -3.60513139713527
H           2.68276145146930    2.01669232513238   -4.33845627902285
H           4.96687545492397   -3.23903519687193   -3.01287587927014
H           4.70860296671065   -0.71655691243535   -4.73029574256089
H           6.14951370298352   -1.85068795132160   -4.60067043467075
