112
 SCF done       -196.389404206138          0.000237471826
C           1.37377025327455    9.00147305005729    4.08425285246692
C           1.27989042003542    9.21466977551412    2.71260343589966
C           0.52904854605267    8.32163286291275    1.87623981602940
N           0.49824669040291    8.52593116717407    0.54227148042744
C           1.07411003859191    9.58990514885132    0.06586938049617
C           1.73634324025354   10.51774740012643    0.90256749991594
N           1.86448350135087   10.31780679447939    2.18004570558070
C          -0.18041526369257    7.24143414135412    2.44734537756270
C           0.03123716424964    6.97126415065822    3.82227830497368
C           0.78036680131919    7.87480448765324    4.64399746080611
N           0.87062406471361    7.66923651928751    5.98191746679401
C           0.28528008120110    6.61909854428579    6.47601841919975
C          -0.38797577227619    5.68596261616845    5.65440773356726
N          -0.51632186823255    5.86273734935581    4.37051289922613
C          -1.22683960113844    6.51045402321049    1.78825287965486
C          -1.83847565721689    6.89379950809284    0.64859079897560
C          -3.08868014432396    6.41407183187342    0.10953985995351
C          -3.60874248645554    7.14748100410621   -0.97671224184670
C          -4.87749042607750    6.88726643281810   -1.42895997146709
C          -5.67413268537107    5.91438707328510   -0.81213340517782
C          -6.98783047952693    5.89402448104071   -1.49262259469038
O          -7.95655436564312    5.20859742238579   -1.27866124350896
N          -6.89908288310348    6.85728366951748   -2.48821929577673
C          -5.66907983929601    7.50134000094627   -2.52102424574620
O          -5.36441904940061    8.36507821746179   -3.30375295631911
C          -7.99498087258150    7.18973820914181   -3.37236024301652
C          -8.90492951728114    8.24390773092347   -2.75108372521165
C          -5.18296772286724    5.16708446429637    0.23274135158608
C          -3.87513132572370    5.38701910264628    0.68148002482180
C          -3.39032792701681    4.49066122545282    1.72831198151393
C          -4.01879139535272    4.32490527435388    2.90210806992143
C          -3.66792160896475    3.33693779094631    3.88054800622394
S          -2.94832177305621    1.85253797114651    3.33473798322601
C          -3.16041858386766    1.10532911254845    4.84524762954787
C          -3.74897965753531    1.94896304837971    5.76199123090764
C          -3.98728829098729    3.26752451046057    5.23421681685314
C          -4.46744202870945    4.29396526240029    6.11259549923351
C          -4.94035523646563    3.88435360718714    7.35868780036735
C          -4.81458969609001    2.55047311158937    7.81161047509785
C          -4.17157319711515    1.61175815769898    7.06736190926186
O          -5.46556492256979    4.81443028300793    8.20517739354523
C          -4.28951957188750    5.71888409286376    5.93999150779980
C          -3.44783215461903    6.34253016428414    5.09553713235818
C          -2.97044607125937    7.70552197321208    5.23113473463673
C          -2.66089884592254    8.42755477863090    4.06773336523626
C          -2.07663798132241    9.66553656916169    4.18457102110800
C          -1.82049196354042   10.22613096729656    5.44428752932045
C          -1.14854859448679   11.52657387793944    5.23782723119331
O          -0.76376802528599   12.33423780638550    6.04413725481690
N          -1.01753394281086   11.65928362269606    3.85908680441474
C          -1.54690178976485   10.59071601231119    3.15791899458631
O          -1.52748796355169   10.46967500878101    1.95519963621414
C          -0.36869971619143   12.79444335633180    3.23759804335447
C          -1.36911745889223   13.67503581506502    2.49914681316813
C          -2.13071536429646    9.54959657221765    6.59778823980368
C          -2.68684446522429    8.26435423663130    6.50236220512165
C          -2.85159187970124    7.46126658357885    7.69043510008160
C          -3.19608415630917    7.90798146102483    8.91230403671259
C          -3.43204287677857    7.05854712811213   10.04378005467023
C          -3.10543370404504    5.68334928214126   10.09892762556182
C          -3.62504567062286    4.85473761868705   11.14733041262609
N          -3.38428436906127    3.52102429211821   11.13083281278073
C          -2.65265952721726    3.02891234967740   10.17472434750422
C          -2.07642373894098    3.85701841420819    9.18900753378726
N          -2.29668616347005    5.13974668769916    9.16200942342356
C          -4.41242783669233    5.37761328444348   12.19731511730121
C          -4.59069527530748    6.77717003283669   12.23082797838679
C          -4.12176269158307    7.59942050896505   11.15535095962326
N          -4.35703898373618    8.93098540538628   11.17217401433566
C          -4.99753841394988    9.43841303661763   12.18417000293068
C          -5.41215071941200    8.63669421234437   13.27000230859393
N          -5.20841916069264    7.35228548225201   13.28790350548116
C          -4.97746265734080    4.45386539215715   13.15643452224982
C          -5.94725323523982    4.70766801059307   14.03319529540660
H           1.87567716349638    9.71911448209540    4.71258182179178
H           1.04884109180503    9.71957168875314   -1.00769365868397
H           2.19422994665531   11.41147458882884    0.49881908208052
H           0.34915799949358    6.47735786641187    7.54609735539992
H          -0.81909201571524    4.78260659466643    6.06511889791542
H          -1.60334968782197    5.68599158462361    2.37488320988013
H          -1.42352640754563    7.74644427204106    0.12887089487885
H          -3.01535554065089    7.92445401998872   -1.43408741424921
H          -8.55454323626877    6.27063458353484   -3.56326150901870
H          -7.56013804628057    7.56180656918273   -4.30314641924627
H          -9.32630480999618    7.87281112523851   -1.81958104603944
H          -9.71673549587554    8.47874262880221   -3.43363658009540
H          -8.34299098732028    9.15284331970790   -2.54840007738143
H          -5.78665608559152    4.39842224227872    0.69113455869761
H          -2.51087969262089    3.90307385465605    1.49396956155006
H          -4.86194491608566    4.95546183780979    3.15433807169303
H          -2.88056679472898    0.08039252770364    4.98537173566480
H          -5.18697004315941    2.30769860041165    8.79870779469130
H          -4.00208645093579    0.61433887823231    7.44137958690164
H          -5.75935757830233    4.38485029674599    9.01803746091266
H          -4.79758906907297    6.30935229786424    6.69069010617703
H          -2.99719295868244    5.80162983841288    4.27773786844334
H          -2.87355552006710    8.00650595796762    3.09688670096451
H           0.39102850301781   12.41749843903798    2.54744638434080
H           0.11753130995902   13.34975472460832    4.04317673348383
H          -1.85930735280552   13.10524341801155    1.71350959841676
H          -0.85323389590091   14.51950062606529    2.05087769424122
H          -2.12373842157411   14.05011442973483    3.18696156440500
H          -1.89567735996119    9.96910587656235    7.56312689943748
H          -2.69487179346586    6.40019395635649    7.56263381624381
H          -3.43980155766142    8.94856804961762    9.07665190897351
H          -2.48190805221166    1.96074379635478   10.18896047567551
H          -1.41073228735494    3.45782370169295    8.43509496147920
H          -5.16616384876928   10.50677747556677   12.17041338886265
H          -5.89028657376450    9.06645005525636   14.14027027962359
H          -4.55516857070331    3.45950373188382   13.09071508721631
H          -6.41411303850865    5.67336889875043   14.10404373355743
H          -6.28963947954889    3.94372259316913   14.71099628583314
