98
 SCF done       -179.295266190877          0.000368622657
C          -5.47206634682586    2.51601117042846    0.16420889702245
C          -5.02093280459014    2.19201047678933   -1.11190480530808
C          -3.98632202417658    2.95654882317446   -1.75031671114133
N          -3.57342946675211    2.60554452208609   -2.98635052821498
C          -4.13803943766218    1.58145296185065   -3.56533950820349
C          -5.16035792086464    0.83839992637255   -2.93802316435389
N          -5.58687097570976    1.13345773864014   -1.74538209375903
C          -3.40036715678525    4.06846557322998   -1.08661124626195
C          -3.87598146536096    4.37177252026003    0.22050087366927
C          -4.91056602005312    3.59740473349779    0.83552519968589
N          -5.36013377563767    3.91153823336067    2.07756072609445
C          -4.81651707343647    4.93032424321282    2.67647761121508
C          -3.78930142276158    5.69121351754714    2.07415179088753
N          -3.33644648688361    5.41715286499486    0.88260491249672
C          -2.38461560270165    4.90620859948953   -1.62102502336974
C          -1.82022896770468    4.83534087037442   -2.85951071589651
C          -0.82953647589853    5.71764524794582   -3.31787155915588
C          -0.22599467264454    5.73006019694750   -4.59475011186734
C           0.72931520920541    6.77353413777110   -4.74877838167049
C           1.41376451937440    6.91338283696379   -5.96768959981698
C           1.15101861601290    6.04158795033057   -6.99033279350926
C           0.20822596534526    5.01168206243027   -6.83795791184150
C          -0.47517278507765    4.85120127369133   -5.66262785784914
C           0.87022820407463    7.56303014728927   -3.58514653236851
S          -0.18680953409544    6.99253825099578   -2.33010616036221
C           1.71950515324890    8.66156805166927   -3.40301364627106
C           1.86515868244185    9.34860605230763   -2.22919403029085
C           2.73174940174029   10.45394585499868   -2.10639991476664
O           3.38187671852969   10.89122397820542   -3.20368961802112
C           4.16197564474193   11.94205994031333   -2.86236928999412
C           4.02348571064277   12.20081061460450   -1.48753169751755
C           3.09831235932520   11.24953488200805   -1.00276816033691
C           2.59248570061291   11.09094065951952    0.38516320968963
F           1.69694917322754   10.10891977099724    0.53001348991270
F           3.57204989731037   10.81517843217290    1.27561479686014
F           1.98132796693735   12.20198031556807    0.85304355813439
O           4.72721918440184   13.20607613427196   -0.94547992926548
C           4.64605336717548   13.51032161337458    0.43343674938534
C           4.94925772330277   12.63669326466880   -3.79973484430686
C           4.91983423724993   12.37852127314801   -5.13979743240222
C           5.64388911951264   13.03036726444592   -6.15354768299456
C           6.77825228502796   13.87190468039156   -6.12308318592330
C           7.10408402318454   14.39724988183453   -7.40813630466438
C           8.20186273473869   15.26181137222990   -7.55475015405304
C           8.96719788502885   15.57083022764870   -6.46307873593239
C           8.67948560534671   15.01520351599034   -5.20641402009195
C           7.61009201983758   14.17814890909541   -5.03097348785461
C           6.24348255921715   13.94802912352252   -8.43420989793021
S           5.06510366884239   12.85276439531375   -7.78432439462361
C           6.27280863306377   14.31404955142369   -9.78678392591175
C           5.39149624165176   13.85067395097825  -10.71998095742518
C           5.33633603296665   14.18986234478760  -12.09513452194363
C           6.23800196469432   15.05642183877976  -12.76952069695783
C           6.03054944089014   15.39967709463707  -14.14460975185314
N           6.89335628444406   16.23790195428100  -14.76535831789972
C           7.89692141047299   16.71768939617895  -14.08899850359967
C           8.10566529506841   16.37340893466956  -12.74066292457767
N           7.29967365955072   15.56390446602419  -12.10997398546249
C           4.93586707862822   14.90209829073716  -14.89173410692333
C           4.08240769346161   13.97923089034369  -14.24693954331414
C           4.27865583382632   13.63552565075604  -12.87138500192606
N           3.44080172256841   12.76914470176406  -12.26542679101654
C           2.46194028008910   12.25656089387683  -12.95807592654445
C           2.28460665617332   12.57031857100286  -14.31905474749671
N           3.07407804216994   13.40023741774640  -14.93858445178160
C           4.77428034507666   15.37283095603825  -16.24803220746886
C           3.71535517284642   15.20643631416389  -17.04042085579302
H          -6.25322835856724    1.93470300106965    0.62502636347633
H          -3.78076230643091    1.32651671070040   -4.55475403324686
H          -5.62431619518990   -0.00700559772321   -3.42885988792903
H          -5.18765063573285    5.17116956534292    3.66412073848373
H          -3.33792117189865    6.53281654778941    2.58248092212381
H          -2.05614478457496    5.68612805226888   -0.94442537970310
H          -2.15178131681514    4.06578623473270   -3.53988745579448
H           2.14075234007722    7.70086127768692   -6.09193764857651
H           1.67382565969557    6.14089782161404   -7.92977755760887
H           0.02572145141687    4.34071785487379   -7.66393684155037
H          -1.19807244465244    4.05884509680794   -5.54794553409223
H           2.30396586000145    8.97424839241817   -4.25664713462672
H           1.30930818841706    9.03482275111576   -1.36172442232285
H           5.33376403237651   14.34225206249171    0.57738715898227
H           4.96631054159027   12.66979921232877    1.05194893681937
H           3.64046816859789   13.82459105226799    0.71905175774441
H           5.53903353677270   13.43514430859911   -3.38229392083213
H           4.21302599507928   11.63239874053439   -5.48105493212009
H           8.43917616780779   15.66485892602343   -8.52680466493832
H           9.81442163914430   16.23222135385754   -6.56560107955639
H           9.32059205546556   15.24815559565396   -4.36932823464967
H           7.42516304298637   13.73334076359088   -4.06762507175950
H           7.03585312437084   15.01230843465977  -10.09440462103802
H           4.62197983660060   13.15622995810466  -10.40441590735577
H           8.56869763778490   17.38151307555900  -14.61718764681795
H           8.94959588249324   16.75401199492670  -12.18010964893409
H           1.80914419174351   11.56558178021026  -12.44131596271146
H           1.49490243500703   12.12043050456687  -14.90688497376993
H           5.62258883712325   15.94545755181608  -16.59978173755147
H           2.84063381552641   14.67099007935674  -16.71968590847685
H           3.71137806658384   15.60832459033062  -18.04005913644060
