94
 SCF done       -175.043145086958          0.000998769710
C           1.28514894009819   -1.03341950234804    1.25375379671296
C           1.32559065805310   -0.45092654448761   -0.00958541733781
C           1.25275627794485    0.97388030307459   -0.17300190345027
N           1.29834346167186    1.49724664764961   -1.41720918946076
C           1.40321379123230    0.68663922204939   -2.43181997637318
C           1.47078255027427   -0.71501835989794   -2.26645819936271
N           1.43448308734384   -1.26563850038095   -1.08989776795873
C           1.13571989155600    1.82369850293478    0.95871679222198
C           1.09946973953861    1.20070543986595    2.23731667676123
C           1.17332660693884   -0.22169405377671    2.37769140331204
N           1.13305658633183   -0.79693185391152    3.60709817484002
C           1.02546864103542   -0.01211711682810    4.63750876056245
C           0.95386070948160    1.39433164493700    4.50204832669472
N           0.99032308137266    1.97701903629318    3.33796393632937
C           1.04688003797388    3.24632237744410    0.92557583354006
C           1.03561481959618    4.05339913133858   -0.17000763163494
C           0.92858325960410    5.46394463693460   -0.10931714631596
C           0.83700513051815    6.29134634247394    0.99284228391260
C           0.72974406111232    7.64132581905599    0.55768362781289
C           0.76768175674279    7.57694160552730   -0.90692876938208
C           0.88719486852779    6.30432234788648   -1.31064216766065
F           0.69315806940336    8.65797242318170   -1.69745195596554
C           0.60015061013263    8.77891098247622    1.32474074761162
C           0.45295610392667   10.12416778639538    0.89095186663292
C           0.31748288176323   10.94459650063012    1.99188569694080
C           0.39301112311016   10.10819803927082    3.19413205342287
C           0.55820696419108    8.84102176844740    2.79064740250374
F           0.67246190584497    7.76567101383461    3.58089475332811
C           0.11091188022760   12.34436252924114    2.05009143695991
C           0.03014540108019   13.15584638507134    0.96286356181249
C          -0.22047597106546   14.55034297843281    1.00533350542045
S          -0.30844539158478   15.43979878628870   -0.50734567462360
C          -0.66941725021280   16.90970579385743    0.32566090715607
O          -0.85948491852146   18.05355628191563   -0.34196844970105
C          -0.71476231359803   16.74215602851268    1.70528313692246
C          -0.45136434086812   15.39604542514340    2.05894735572525
C          -1.00437630724303   17.77934806657409    2.65334793861193
C          -0.89196183203768   17.69819633938459    4.01713125377148
C          -1.30709969190293   18.93749072338207    4.59493927648723
C          -1.68601582345764   19.77718298758388    3.45645924596742
C          -1.50288316000631   19.11159379770577    2.30624645450917
F          -2.13858230956363   21.03309010235834    3.57961608340607
C          -1.34963916267625   19.29068413621728    5.92221081071296
C          -1.80438335661936   20.51080612504798    6.49948247447525
C          -1.67073600380704   20.44762668890892    7.87100093337629
C          -1.09624086993754   19.13973714386764    8.21127354002665
C          -0.92374933310463   18.47146403018270    7.06231552761991
F          -0.42550830912243   17.23292598849171    6.93450562599183
C          -2.04820067115556   21.46607300235682    8.77578925922273
C          -1.85390997664045   21.40644575834714   10.12154366409655
C          -2.23789534521017   22.37337108504147   11.09341780365881
C          -3.08946727890374   23.48387290307596   10.85726395656871
C          -3.36197934459985   24.44780344126008   11.88603289833113
N          -4.19581589899249   25.47954229283560   11.62521802049109
C          -4.70947175732715   25.59152601557272   10.43491677716267
C          -4.44731181069545   24.64142134413487    9.42856918340376
N          -3.67395555933433   23.61671461924151    9.64871890146277
C          -2.78821254939932   24.33461382133422   13.17290368007784
C          -2.00859364339422   23.18272971422915   13.43176854075687
C          -1.74262203854119   22.21597810123926   12.41563916661809
N          -0.98796876032994   21.13071996998296   12.69659043607591
C          -0.50167260585474   21.00692075417192   13.89850835654856
C          -0.75294389872800   21.96854976909738   14.90007399010181
N          -1.49106584217644   23.01538116247440   14.67198452000577
C          -2.93581987052522   25.30156446831510   14.23572987099147
C          -3.42684045967742   26.53751415095825   14.14307021227647
H           1.33827731240217   -2.10451325825177    1.35768494948402
H           1.43701625521456    1.14076971559939   -3.41343766882521
H           1.55678705742293   -1.37908781261252   -3.11632518846957
H           0.99372931621700   -0.48417908904774    5.61052145141300
H           0.86567584950048    2.04015593941018    5.36548466601780
H           0.97155435605117    3.69456104525931    1.90684676312535
H           1.10216459981700    3.60829162003725   -1.15174469357159
H           0.84053405681988    5.98412976945196    2.01934157374820
H           0.94190001847346    5.93751859491418   -2.31707224556402
H           0.43943304325464   10.42877164980542   -0.13611256009217
H           0.32393080035127   10.47213916040969    4.20078307429370
H           0.00245279752052   12.77229458139787    3.03702716869332
H           0.15102299182776   12.72674226711831   -0.02168527793217
H          -0.74906013183461   17.92985814951692   -1.29260438776161
H          -0.45312047992671   15.06276828298584    3.07922778617204
H          -0.54555161913873   16.85678653768279    4.58244257444644
H          -1.68660010127345   19.46246610292314    1.31139403589485
H          -2.19713760799850   21.34209294167806    5.94778258790949
H          -0.87110291899357   18.79210240427350    9.19981567314492
H          -2.51994109009046   22.33847236325189    8.34773330669892
H          -1.32337881120857   20.56395268210490   10.54374820332016
H          -5.37433121171878   26.42879195908024   10.26728786162371
H          -4.90249588208306   24.70682873561474    8.44899960779311
H           0.09152438313638   20.12450394647913   14.09613439397736
H          -0.35353234620249   21.86229025074717   15.89963136947495
H          -2.56479106780041   24.94101056294848   15.18634791844132
H          -3.77059034756844   26.94781248801530   13.21086991508413
H          -3.49531846195891   27.16559005729282   15.01575095067396
