96
 SCF done       -163.158266891026          0.000574022681
C          -3.70909821350567   -0.02077965917167    0.06046175284191
C          -3.46416577019258   -0.52258441107431    1.31020311691846
C          -2.79734296448842   -1.74104182848927    1.47867069364009
C          -2.36681816778215   -2.48801934993255    0.39843033255890
C          -2.60952759952646   -1.98573375218095   -0.91255269837648
N          -2.17494658506520   -2.66551905589445   -1.99139138622623
C          -2.40604336034623   -2.15085606482711   -3.16913063334226
C          -3.08310162924567   -0.92515413517404   -3.32696022923401
N          -3.51084566660950   -0.23743180094932   -2.30392825279832
C          -3.28297987764953   -0.74153283960242   -1.07277320062319
C          -1.69199230753836   -3.75020593448452    0.58418331130309
C          -1.78370219264791   -4.90240782795690   -0.31692947710330
N          -1.08911445345795   -5.93750787358099    0.06299089189926
C          -0.48269170773667   -5.56229366386424    1.22159233761218
C          -0.87397955550384   -4.18952947806921    1.59672127933327
C          -0.15265081011241   -3.78843189011327    2.78442721258636
S          -0.17296401358571   -2.30250645492108    3.49541605644573
C           0.64412543677376   -4.93706586450488    3.13687956176096
C           0.42538277230990   -6.00627570997378    2.14446540995180
N           1.21767908685890   -7.08242588902168    2.40774834613490
C           1.92322867395616   -6.74282453679674    3.44787552492139
C           1.63905010460424   -5.40679890353917    3.97181362308344
C           2.29045224774693   -4.83239120667394    5.11674514319184
C           3.56122656180471   -5.24432885129690    5.47019334652113
C           4.21116327420076   -4.65296694963276    6.56554954889148
C           5.47887535666593   -4.87049767090784    7.09946242902740
C           6.45799102267700   -5.89964518808765    6.65866236074091
C           7.73282572950178   -5.27461767940346    6.06390667388762
N           7.40630613215324   -4.55522131242796    4.84504864042343
C           6.80917579963874   -6.86301061913676    7.80820503528642
N           7.55893598966303   -8.00147296814453    7.30221194487231
C           5.61949798811924   -3.95907394519046    8.21272889687902
C           6.64477301914636   -3.70908017080791    9.04891882998889
C           6.53423722153446   -2.73066486085201   10.16326620297803
C           5.21092001118796   -2.03355539428235   10.25535502484493
C           4.20632739761727   -2.26722324891189    9.39086337449216
C           4.36281370070616   -3.20873058492917    8.34679844188731
C           3.52265368634027   -3.62476261765856    7.33066997550950
C           2.21438564284733   -3.24196900058561    6.96142704585698
C           1.62359483495004   -3.82868093558190    5.88847306202563
C           6.83228015267575   -3.37945193709067   11.49459457319315
C           6.77296875105069   -4.69939439982562   11.69454462693020
C           7.08969833309509   -5.36743023449579   12.92016175547667
C           7.35098825726246   -4.80056325514175   14.24187620017589
N           7.65818614556722   -5.68013704640493   15.15660789754972
C           7.63954030594594   -6.88726792655895   14.52381420809407
C           7.27114371289035   -6.71749223586369   13.10804612206393
C           7.23904185994625   -7.99308755784871   12.44495213496655
S           6.69767521793021   -8.30186151628230   10.92440525527169
C           7.67494066588484   -8.92823053848588   13.45129758265620
C           7.86685729427074   -8.22278217651155   14.73809081632797
N           8.21079457838158   -9.10222255888946   15.71682076850809
C           8.23914668528256  -10.27288285957259   15.13904669321339
C           7.92661006216902  -10.25099958657237   13.71321802584458
C           7.96022395436072  -11.38539082906598   12.82187605326800
C           7.50780121707262  -12.63182203575641   13.20495391018808
C           7.50649696754736  -13.71263845746153   12.31514570537830
C           7.95895869548428  -13.56951938977036   11.03050498365764
C           8.46060070278569  -12.32459089211576   10.60470402089782
N           8.90755807988416  -12.17700235182512    9.33985562386738
C           9.38543568506375  -11.01284757608623    8.99717936151902
C           9.48923289359136   -9.95111576471399    9.91916751443249
N           9.04269177538869  -10.05692838750216   11.14105902027793
C           8.48541599350268  -11.22480564223176   11.50740710007786
H          -4.21604426295460    0.91864213389899   -0.09403457879110
H          -3.78358895780773    0.02188418172425    2.18611840405532
H          -2.62653898280701   -2.11289977234716    2.47673941642772
H          -2.04944244880839   -2.71349763103741   -4.02155658069579
H          -3.27112215275007   -0.50845266392986   -4.30746595468878
H          -2.37968805491975   -4.93420075296566   -1.21000348173930
H           2.61602816071258   -7.44449663039142    3.87933454531288
H           4.07710931639867   -5.98490947118639    4.87823980005609
H           5.99390519553695   -6.49674031701023    5.86577264376777
H           8.45857013839959   -6.09064746229370    5.92183103298597
H           8.15749689654359   -4.55342027745316    6.76517308131304
H           7.08407176964068   -5.19872639392335    4.12970554057860
H           8.22347114071968   -4.07647765486176    4.48428154412504
H           5.87670140661923   -7.15244442899978    8.31823479568147
H           7.44522992073185   -6.36152513764204    8.53919656482588
H           6.96990828286375   -8.56288080736206    6.69383179903356
H           7.83066365283940   -8.59181505900101    8.08179608136907
H           7.59796597170552   -4.20967118928561    8.95892422079726
H           7.31095515103595   -1.96345081638079   10.00632943488917
H           5.10124995354759   -1.32861296033482   11.06521916839564
H           3.26819199246168   -1.73965409244660    9.48315205582014
H           1.69503128873297   -2.48692849475745    7.53217473891135
H           0.62462026681122   -3.54825372989230    5.59737378689225
H           7.08468954423103   -2.70354260908650   12.29907906522493
H           6.50822845096489   -5.35863008517789   10.87715991636079
H           7.30021699361626   -3.75655352169985   14.49708407271489
H           8.50333483939180  -11.15239215820236   15.70060726144997
H           7.11082374133313  -12.76692221552624   14.20054619951006
H           7.12734788152580  -14.66605752710852   12.65200775186920
H           7.93906247967058  -14.38208213164513   10.32171112152192
H           9.72282683002709  -10.90339695535140    7.97511048395189
H           9.94988879131885   -9.01032808318808    9.64800656336810
