92
 SCF done       -195.305944907774          0.000749419172
C           0.08857770011862    5.32181798894542   -4.04320168311775
C           1.41513226345610    5.23011038993387   -4.04441271846150
C           2.09802020043636    4.16493615695870   -3.34475442000640
C           1.44000551702173    3.34159412315024   -2.52865131723930
C          -0.03552400683295    3.53957001954023   -2.22967354704178
C          -0.78323715982790    4.31619158259843   -3.33609020317308
N          -1.35830001773177    3.49029101478683   -4.37653035782883
C          -1.53379177547973    2.26710198816681   -4.15568739337265
C          -1.22680662741549    1.64657047519820   -2.85370005541373
N          -0.59367384030319    2.23545262541872   -1.94087658294482
F          -1.67945775585991    0.41478991756415   -2.62786482764877
F          -2.05785260019127    1.49340323654943   -5.09791280226715
C           2.07303899448427    2.21043414585978   -1.83195519508397
C           2.07354237290706    0.92735331363775   -2.36853758702469
C           1.48373030044378    0.44622843398948   -3.63324546490404
O           0.89033460246818    1.06603775810927   -4.48187031064998
N           1.72858063736287   -0.92858926476637   -3.67528325003112
C           2.43833354671346   -1.37331282697380   -2.55511605784747
O           2.79299280035514   -2.50181821470261   -2.33989059371084
C           2.65159246046734   -0.16497482401796   -1.71581734916145
C           3.28109362817171   -0.03459440301835   -0.49291595472176
C           3.28756008678858    1.24415336347752    0.05701137971233
C           2.69266435595930    2.33277833769102   -0.58243795524409
C           2.75634617933816    3.59663386388289    0.17426982400933
O           2.29136639460720    4.65619054528268   -0.12258228417332
S           3.66375805889871    3.31158584079391    1.69993342281360
C           3.91096897313537    1.56287400030540    1.35717108429463
O           4.49413302135369    0.82268380290271    2.08804892508313
C           1.27333004614732   -1.68895723781897   -4.74819696249023
C           1.39849440338189   -3.01913580627949   -4.86317895076932
C           0.92859993967616   -3.77089612834150   -5.98169573605286
N           1.07429555217010   -5.14010379381884   -6.00137868311620
C           0.56136093911174   -5.61352873876171   -7.16796727496904
C           0.33820115062161   -6.76348783787501   -7.91054325273825
C          -0.27798232093986   -6.34118872704155   -9.10114544559711
N          -0.43249641743783   -4.96785287512241   -9.07142016169982
C           0.07861375420215   -4.49906780681522   -7.90784579972659
C           0.30938587262323   -3.34644856349600   -7.16065256197124
C          -0.71067360884531   -7.09121184143702  -10.21746219570772
C          -0.56340595312548   -8.43774671976487  -10.32121838688958
C          -0.97852338093954   -9.27591073174550  -11.39649817338959
C          -1.18861219936607   -8.87837772896788  -12.74137269941920
C          -0.95364734305336   -7.59077761354024  -13.43669394275448
O          -0.54264578701398   -6.53243696979596  -13.02836757290718
N          -1.28479880720111   -7.79754195179962  -14.78645099292507
C          -1.69276382663431   -9.10508678743207  -15.03184173095105
O          -2.01837482571107   -9.57229762395847  -16.08967907054014
C          -1.60782918585949   -9.78661498311848  -13.71583132772928
C          -1.84730592827442  -11.12290800048630  -13.46248294683310
C          -1.61362894552947  -11.53953887483468  -12.15934472342044
C          -1.18767609465449  -10.66852856277726  -11.15962351477525
C          -1.00491788909174  -11.33220141813900   -9.85906090099194
O          -0.66378172209004  -10.87425937237388   -8.80687617581027
S          -1.38860801655372  -13.09151281030114  -10.01699313599400
C          -1.79493829912955  -12.94797321392478  -11.74899126465986
O          -2.15357220298887  -13.85981244258284  -12.43070772126546
C          -1.15417031153570   -6.76359709820994  -15.70921270668428
C          -1.50795828463712   -6.82951092899131  -16.99758479879846
C          -1.34017340735592   -5.74867768665208  -17.94167154751769
C          -0.48318888696075   -4.72072739726154  -17.79245413439504
C          -0.34789540559290   -3.68274512001597  -18.77994310717285
C          -1.17098609074148   -3.59642893982237  -19.82469237247423
C          -2.32174818822611   -4.54999681768599  -20.00046567614687
C          -2.13370425306878   -5.88065382471208  -19.23440327879432
N          -3.37919716323303   -6.54802947236440  -18.93154699602450
C          -4.42756163347157   -5.86414774481392  -18.82702474826273
C          -4.46129145556305   -4.41199474754919  -19.08404543582215
N          -3.50679128493096   -3.80202869308382  -19.62591877986601
F          -5.54804844913974   -3.73829249849754  -18.71650862218159
F          -5.56894791247863   -6.46533972793934  -18.50588803489414
H          -0.43605071714582    6.06335209575351   -4.62259947765205
H           2.01986248261710    5.93638310022643   -4.59149032749447
H           3.15621685625143    4.03639125531656   -3.51605350254019
H          -0.08635564335121    4.10547107792854   -1.28909284719729
H          -1.63475638884704    4.84692389549712   -2.88733960297943
H           3.73608559395321   -0.86861191129909    0.01731536387430
H           0.78583439756770   -1.08149901684381   -5.49727975171713
H           1.88335751319187   -3.58091277673826   -4.07845981121486
H           1.48645576433932   -5.68038273861949   -5.25983896270631
H           0.56799314616957   -7.77579864543186   -7.64785277667364
H          -0.82047412660476   -4.42646911528349   -9.82530713587090
H           0.07060310586030   -2.33497609161467   -7.41728343674110
H          -1.18931411687442   -6.52834761863051  -11.00359855233233
H          -0.13976881779445   -8.95454331209045   -9.47486625966474
H          -2.17531936431637  -11.80566763341345  -14.22889527179799
H          -0.73839179648008   -5.87420245664890  -15.25473656930673
H          -1.97161293260773   -7.72412046207983  -17.38404183149286
H           0.13899812637746   -4.65800194891049  -16.91373629831376
H           0.44130087103816   -2.95932562913885  -18.64176871346871
H          -1.11997574333687   -2.78687676481002  -20.53360614934229
H          -2.44568034035111   -4.76567162330498  -21.07113417825725
H          -1.57592235709960   -6.58173121117493  -19.87169908687559
