114
 SCF done       -197.099373561901          0.001462878756
S           6.38473338041506    2.93604645089232   -1.22639398200139
C           5.37851446273302    1.38117736690394   -1.31860573313156
C           4.42170561888066    1.52996951800582   -2.50221786366286
C           6.31457171093459    0.19505587351509   -1.50229957074118
C           4.60752097565381    1.33147950707156   -0.02556984804792
C           4.66193016102436    2.49404642363290    0.70216958207185
C           5.53455630375283    3.51232779465070    0.16441496787271
C           5.72111365338971    4.78579308746104    0.64854362980907
C           5.05283138616901    5.36802119452592    1.73610281086657
N           4.55068852577500    5.94643157542933    2.59348380234828
C           6.63557079280287    5.65765409258815    0.02132830366853
N           7.38432937669570    6.36980304854642   -0.47696101337600
C           3.90655579410444    2.82333887013107    1.84048343199599
N           3.29105101319471    3.18115669689447    2.74180300290586
C           3.83768999140294    0.15850885100087    0.24711654658357
N           3.47880751113100   -0.62471192037556   -0.76660287408405
C           2.67189476624182   -1.56627127585886   -0.24675872914252
C           2.51555265335822   -1.39353776533838    1.19507814741610
C           1.64476254676363   -2.44569454919584    1.74791093755817
O           1.30340928471413   -2.62723366210942    2.89570095153041
C           1.29786895687107   -3.23743306395239    0.54932643008177
C           1.94742704159369   -2.66889351945730   -0.64689316086070
N           1.66074150436490   -3.40304786643607   -1.74704694618607
C           0.88954984315318   -4.37477585327647   -1.31647937256415
C           0.63233077712252   -4.33671645686799    0.10930406289558
C           3.29719667933500   -0.31593030399202    1.53932533275441
C           3.56646316261929    0.23108826128961    2.82724067024668
C           2.68730353538659    0.09720500092580    3.84516856477647
C           2.73043811249784    0.77991575937725    5.10659561518493
C           1.60069280175598    0.72060782806461    5.90882889292047
C           1.53251046621039    1.48747383877271    7.07839502345236
C           0.50049684133153    1.64505325090797    8.00943469418795
C          -0.77363647474623    0.88328402346367    8.03946884528090
C          -0.99519193893284    0.22750534223877    9.41280212656410
N           0.23082039212588   -0.42910326418749    9.83611759361528
C          -1.97836390392271    1.76170183248090    7.62500885896595
N          -2.03109558415098    1.80141535100307    6.18446460117941
C           0.92533060563932    2.66526342163019    8.93584081236780
C           0.28610861417985    3.30645093262016    9.93480822363000
C           0.94225297194080    4.40989002986252   10.67868655894882
C           2.41201689687313    4.55103804516937   10.44414062417238
C           3.02307916503940    3.94274617211954    9.39707113869011
C           2.30779333612967    3.04109982557488    8.59066408370274
C           2.65102127232864    2.33444147201095    7.44251346986236
C           3.80816778207579    2.34159342853185    6.64098949067037
C           3.84081261899777    1.58073048517654    5.51135474734445
C           0.55108575817729    5.76639975979511   10.13480753120123
C           0.40345947689307    6.03821448044570    8.82371352461587
C           0.12568051720522    7.34708758506946    8.34850170632497
N          -0.15939794716693    8.36214606458395    9.16342076862272
C          -0.35959372435422    9.42621416289535    8.37310975329432
C          -0.18504667813033    9.08650912742370    6.95560397956949
C          -0.40326304713087   10.27136389429522    6.10727023022583
O          -0.32742537094666   10.34931133121220    4.89501214535020
C          -0.72723289437504   11.31357878122508    7.08461207887880
C          -0.68795559924549   10.76729081982833    8.45476239085068
N          -0.98650207551790   11.72153558641322    9.35897689037686
C          -1.20876820052757   12.81080497457492    8.64988885928919
C          -1.06500453933708   12.62632830026412    7.22884284335786
C           0.12380039617683    7.74505471347870    6.92592155924925
C           0.40289973696221    6.88688419289557    5.82867673159865
C           0.43793804904458    7.33531282478292    4.54917370381181
C           0.67133774468840    6.55611273813425    3.38472479446801
C           0.63593860225149    5.18720879973734    3.25874329412540
C           0.88983286347824    4.69362279592273    1.93223110961529
C           0.86182199047916    3.37991712681037    1.52611808582017
C           0.47425654680274    2.29973145959191    2.33493723119595
N           0.14348606542229    1.37320566302826    2.92707960712701
C           1.33022087565163    3.02438739987818    0.25058272449333
N           1.79066976314487    2.73686612511645   -0.76214935415945
S           1.26756793350981    5.97907179301890    0.83829636065692
C           0.95026343002224    7.29605115120894    2.10437627384289
C           2.19563807208558    8.16865509865139    2.22268427092016
C          -0.25928477424113    8.11329961431670    1.65179588880835
C           0.40379506733510    4.29327666691287    4.31602138378548
N           0.21522622511810    3.59077488864271    5.20574027447734
H           4.98968839758599    1.69691338641332   -3.41473623851207
H           3.74004231993539    2.36314933087210   -2.34318479585506
H           3.83561830069404    0.61942278560312   -2.59521372382284
H           6.89799843072713    0.32101778572084   -2.41018536494148
H           5.72463433754704   -0.71417372660861   -1.58673375053487
H           6.99644845120585    0.10392854166550   -0.65918438350386
H           0.50503874969038   -5.10725138115783   -2.00474592290147
H           0.03518632709961   -5.04059645279655    0.65450235564261
H           4.48225524248160    0.79487809623261    2.93701575956141
H           1.79888012128695   -0.49317335675643    3.66971985750678
H           0.75649669514622    0.12849681933257    5.59117963664238
H          -0.71136022409650    0.08637121599858    7.29279995634648
H          -1.85714353440987   -0.45641110974446    9.33294479646804
H          -1.23840594832355    0.98117050947857   10.16532779984233
H           0.51003144050938   -1.12382043456974    9.15093551914912
H           0.08996438960020   -0.90647767242593   10.71964249560131
H          -1.89045692026224    2.75166413753393    8.10324752703272
H          -2.90012564691293    1.29223539179260    7.98383211388913
H          -1.21825445069578    2.27069068285087    5.79505077795233
H          -2.86914873942030    2.25761611698261    5.84789127773631
H          -0.74358964427151    3.10628653345969   10.18965733811654
H           0.69312323607193    4.35760000558923   11.74158651999676
H           2.94437072866554    5.23227993242591   11.08835503018588
H           4.06901147780942    4.11967070517629    9.19354368371601
H           4.65000416330668    2.95960385361029    6.91590674632672
H           4.72468902696491    1.59256312212692    4.89338825165372
H           0.47643578258108    6.57894864260108   10.84249285987223
H           0.51534690013434    5.25270215073068    8.08882880214442
H          -1.47184222740505   13.73127504668543    9.14115449183869
H          -1.20260897470428   13.38288216089861    6.48179477386016
H           0.61324117618002    5.85302261622428    6.05229339121400
H           0.28521164191501    8.39346612933440    4.38402022543537
H           3.05309272038563    7.57023267824040    2.52707127256510
H           2.03361031130641    8.95577503667802    2.95516213800448
H           2.41510645782796    8.62921664346193    1.26193920151732
H          -1.14342061932975    7.48338168998281    1.56906204280080
H          -0.05835409001364    8.56034629169158    0.68115387524544
H          -0.46151545698145    8.91080302416584    2.36343953642377
