106
 SCF done       -184.858410835918          0.000917693795
S           1.77017400766766    1.42241487665562   -0.67581644373899
C           3.16632281498094    0.24616428263220   -1.02881485055494
C           3.87159562990610    0.69170073015469   -2.30870498156825
C           4.11616084610703    0.26846374931189    0.16538005586266
C           2.49923003805859   -1.08119361312547   -1.24559275365849
C           1.14172825533967   -1.08153015498228   -1.12878684507710
C           0.54770675680807    0.19738828655128   -0.83001745465522
C          -0.78683419846868    0.46991382991293   -0.69811078686656
C          -1.80750433401028   -0.48872700655460   -0.84472572420238
N          -2.68919665013421   -1.21446735838988   -0.95535160618908
C          -1.23117062336003    1.77809754734080   -0.41725699373880
N          -1.58867406530825    2.84146611152961   -0.17772475611791
C           0.38796189766399   -2.27110019212194   -1.23044250792309
N          -0.15046796218549   -3.28121489665154   -1.28902382132226
C           3.23209577323639   -2.25324634226812   -1.64562372242304
C           4.39008685197648   -2.87923682411551   -1.01951477715491
N           4.74792659561769   -4.00558473186465   -1.57637481147522
C           3.88863804177655   -4.19984446765345   -2.60829532296085
C           2.92702016612110   -3.09625435927471   -2.68926036226921
C           2.02752904172205   -3.28908310377171   -3.80487290445343
S           0.93315193697733   -2.19477358636359   -4.36164596969524
C           2.37498733127026   -4.58898829154560   -4.31389515401506
C           3.53399693691193   -5.11771278782430   -3.57084904432030
N           3.84040182141321   -6.37517943345905   -3.98467325959241
C           2.92957343725221   -6.68407738661825   -4.86547921874842
C           1.95659518312586   -5.62388745900757   -5.12769853299553
C           0.81577397149336   -5.73882653325551   -5.98919479912179
C           0.21435759344170   -6.97912587528161   -6.16549597481872
C          -0.99971358012822   -7.05559877534752   -6.85090063393011
C          -1.86759428026813   -8.14494506950283   -7.03912076125338
C          -1.58188193250505   -9.52136019086484   -6.59112238100443
C          -1.98283200764779   -9.68496418708621   -5.09161226604280
N          -1.00597593483922   -9.05517512053515   -4.24350064259715
C          -2.22914878085026  -10.64394691657092   -7.41215785727620
N          -1.62431952534280  -11.89958664225720   -7.02811679419534
C          -3.02797095603150   -7.62998522976751   -7.71934250221303
C          -4.23399098092634   -8.17186248736273   -8.00277991847969
C          -5.20770612767570   -7.46106990527857   -8.87380944374001
C          -4.89886159316181   -6.02906269151756   -9.13427833577324
C          -3.74912569711404   -5.45440416519229   -8.72421774749611
C          -2.78730954717979   -6.21231727842194   -8.02093078352644
C          -1.56974093631022   -5.86532664425544   -7.44525455004611
C          -0.89076649080497   -4.63733196058336   -7.33227256154552
C           0.26271764496046   -4.58065683388847   -6.60722710564768
C          -5.01834616421127   -8.28925912973494  -10.12950159549573
C          -5.92043405928570   -9.15438129930674  -10.60252888057443
C          -5.65671526930211  -10.05419423685835  -11.68541933204728
C          -6.68610387204947  -10.71440637161545  -12.47741664411651
N          -6.22516501168146  -11.54073489531695  -13.38201598163745
C          -4.87839559690882  -11.51245902632073  -13.24010491034895
C          -4.47542528595341  -10.56784642814602  -12.18412690091499
C          -3.04221978887572  -10.60158640858608  -12.02527263799260
S          -2.08419031062655   -9.65892533632954  -11.06752800831988
C          -2.60116023105062  -11.60775577362822  -12.95847200030013
C          -3.73765665170266  -12.11817501136737  -13.72783108571667
N          -3.32513283477913  -12.99866035450240  -14.66999215256645
C          -2.02134672907034  -13.04709692175114  -14.56580616961735
C          -1.47988471490709  -12.21357337773547  -13.50575688125921
C          -0.12148229473563  -12.02253725649961  -13.10676111931492
C           0.24830551407093  -11.84805452332727  -11.80006432022188
C           1.60714065681235  -11.42516729414199  -11.59601554140034
C           2.18774331969019  -11.08056889578435  -10.40129328866397
C           1.50673030270973  -11.03529860372248   -9.17703112684227
N           1.01527107657426  -10.93585928695063   -8.14257570213324
C           3.53822983209374  -10.68040356387210  -10.34189612294528
N           4.63967486827048  -10.36341489201033  -10.29478123654121
S           2.45819198440287  -11.32055281820906  -13.10349198764585
C           0.99675028148288  -11.89282371118950  -14.10358986666258
C           0.68089897493265  -10.84160977666652  -15.16245197838646
C           1.38370163910721  -13.22926916999513  -14.73666753854111
C          -0.59164232638161  -12.19687598841617  -10.72513977297326
N          -1.25370119519262  -12.60811080093511   -9.88273271763608
H           4.28507807396063    1.68906902814139   -2.17960526693058
H           3.17435959898648    0.70675959697205   -3.14443972260409
H           4.68020994221240    0.00171880393254   -2.54445331750603
H           4.39421975234658    1.29642826619631    0.38819187885966
H           5.02214566516429   -0.28784803924495   -0.06070893558342
H           3.64136268211775   -0.15985065772938    1.04605270090591
H           4.91034632073778   -2.51832968165593   -0.15124320322610
H           2.96173559628637   -7.63581098958621   -5.36663718265736
H           0.63040786655611   -7.86084843791137   -5.70770914375996
H          -0.49994474388952   -9.67951489138861   -6.63938556969645
H          -2.06720162783212  -10.76867089627895   -4.93149284481536
H          -2.95720496235056   -9.21967554028389   -4.92647152024964
H          -0.20004221634616   -9.64853558279423   -4.09337875745557
H          -1.37937576617260   -8.74985128548543   -3.35652162446629
H          -2.10907149277879  -10.41142036069991   -8.48392719938103
H          -3.29754709580190  -10.72230676600715   -7.19515453495512
H          -0.63075683185947  -11.88019096076871   -7.24463756346499
H          -2.03454225591007  -12.66619774478217   -7.54840996050831
H          -4.50905956129575   -9.16793216246093   -7.69526180303541
H          -6.23630877674754   -7.58141958585570   -8.51895557508411
H          -5.63644714473507   -5.47415607347474   -9.69314589196454
H          -3.55201220356858   -4.41104893833042   -8.92106277555142
H          -1.29371306075136   -3.74990773506037   -7.79605756208939
H           0.78476556752190   -3.64446263053310   -6.49325509963809
H          -4.04926200172398   -8.19254825081959  -10.59437246799497
H          -6.91210391159267   -9.21357174876969  -10.17008724627154
H          -7.74528762596413  -10.55801131304094  -12.36844636064017
H          -1.46153149669189  -13.70191591546598  -15.20808583903033
H           0.46263122068924   -9.88260769026837  -14.69581223346036
H          -0.18688490351493  -11.14979635602016  -15.74329988158810
H           1.52775259208986  -10.71849503932086  -15.83351075065145
H           1.49667280989864  -13.99939517102758  -13.97584848442994
H           2.32977863243433  -13.12028848390953  -15.26285389994221
H           0.63265887465978  -13.54791652395704  -15.45356925298573
