120
 SCF done       -225.600588532507          0.000924076154
S          -3.52796990109555    5.95091799396425   10.99600995841065
C          -3.85285218919853    4.30037154233863   10.20895517789161
C          -5.35025285421429    4.01491908260690   10.27180266446011
C          -3.37689424597472    4.35464875861218    8.75706619990861
C          -3.02571152079351    3.34286482694219   11.01639254269462
C          -2.26985797133500    3.88445291013538   11.99659860727669
C          -2.40545005346446    5.31544263653919   12.15667247184779
C          -1.75733986006431    6.09146264737695   13.07510321242108
C          -0.84169072989440    5.58147025218816   14.01700449629413
N          -0.08603856243452    5.22049080181248   14.80024308535330
C          -1.96848243172124    7.48531558756311   13.13007400775754
N          -2.13810467487385    8.61853566936466   13.17167743657217
C          -1.41661903824061    3.06537941184457   12.77125348634588
N          -0.75678724852397    2.30398561962207   13.31544260678518
C          -2.97736458900361    1.90705254304443   10.71024874372943
C          -1.98855842279700    1.37330154405493    9.89097315688266
C          -0.83323746348738    2.03664723953174    9.25637582807380
O          -0.50741571569091    3.19810272421519    9.28277394513040
N          -0.13584717815958    1.02891247935622    8.58420073159899
C          -0.74324443364859   -0.22514178430940    8.72521079385326
O          -0.36745285886675   -1.25565264857591    8.23334126089756
C          -1.92531295944266    0.00621508149296    9.58971175141859
C          -2.84300015753231   -0.89681207427073   10.09046045876729
C          -3.80690229050194   -0.37979758350322   10.94938526389816
C          -3.86589391855083    0.98122158408528   11.26823946323939
C          -4.86862336504299    1.32338760369762   12.28977269234453
O          -5.05692208549117    2.39482129296314   12.79205960280824
S          -5.78452570068191   -0.15019581203269   12.72410339533830
C          -4.82395210677307   -1.20631863854430   11.62208032644320
O          -5.02161741562701   -2.37553462516785   11.49301084158211
C           1.02561736567764    1.33377017523132    7.87929725935763
C           1.74371515837315    0.47203699625734    7.15233520510507
C           2.92926523404001    0.82354155335242    6.39748694876313
C           3.64357178416287    1.98371437540973    6.61270279908086
C           4.75375663990369    2.28456660113086    5.80498491648416
C           5.60802032160641    3.38964931153376    5.80176571848172
C           5.56126476412103    4.55018438411490    6.71999450560568
C           6.92777670524105    4.82060830038534    7.39405514013102
N           6.69790089734120    5.43700768196967    8.68414323950114
C           5.04269449226399    5.82361564367743    5.98851408570218
N           3.66430249494281    5.75947908799203    5.58002292399116
C           6.52469011444584    3.20012880700637    4.70046194395995
C           7.49197734992617    3.99158770514710    4.19914670334909
C           8.29672899373024    3.58212514766930    3.01182846268865
C           7.99470973551220    2.21930261709832    2.49068099463243
C           7.00377057102438    1.45076209419840    2.98773027742529
C           6.22416923085156    1.90914586954011    4.07317928060470
C           5.14048645895218    1.36461924783814    4.75115327049054
C           4.42139881371753    0.16538386861974    4.57860899411173
C           3.35373803786014   -0.08986610327312    5.38442159050558
C           9.75588459575584    3.77090381977227    3.36169970451280
C          10.28341955866529    4.97732129877123    3.51693433854190
C          11.63121808614296    5.24215010826620    4.00322705643570
C          12.79241073609419    4.76757495421323    3.39831518385440
C          12.95000935824090    3.94069557909218    2.18512651709378
O          12.10037030279837    3.43918741112715    1.48985353169639
N          14.33183595128502    3.83422605656480    1.98123284713608
C          15.07448532731976    4.49504364667370    2.98839160611309
O          16.27143202473464    4.50760339009933    3.04832846329559
C          14.06883882372558    5.10186160507130    3.87931270720700
C          14.25410608843032    5.89684350371799    4.99541409060026
C          13.10131515363833    6.35527045272895    5.62262523817414
C          11.82398243957421    6.04383762042607    5.14058378040486
C          10.72360770765109    6.58458275160143    5.94448165341255
O           9.54158844821387    6.43724289812675    5.77320202923113
S          11.40119311087001    7.52334633694829    7.30912972148490
C          13.11125153937530    7.19470887612360    6.83020704920912
O          14.05096296665371    7.61196000825494    7.43469749717914
C          14.98108481159049    3.21242134651172    0.93183806137713
C          14.38123573530071    2.45217503454156    0.00174930477962
C          15.05101100905399    1.82576675391155   -1.09846262000812
C          16.23056117355362    2.20381692628547   -1.67456227454548
C          16.68634762911126    1.35787599888425   -2.75215039446216
C          17.83326264075399    1.49551212660733   -3.48664004474710
C          18.79541303821937    2.50673756664021   -3.30116957578893
N          19.62724123222472    3.29095396968284   -3.20771477777269
C          18.13448645501712    0.57637624041511   -4.51374614393351
N          18.36939029000332   -0.17517355361351   -5.34791676263551
S          15.57337067061182    0.05284731949779   -3.03839970942347
C          14.39218032731432    0.62746387333937   -1.73016804288391
C          13.07735869780310    1.00179321735284   -2.41325715678196
C          14.19537053536671   -0.50021128876711   -0.72030128669071
C          16.92878252023488    3.38076662137290   -1.33089735323833
N          17.44281673724811    4.36992422879384   -1.06371303388815
H          -5.88899838956713    4.78107588299076    9.71896011066260
H          -5.70005423648988    4.01278997307265   11.30116110445277
H          -5.56731413559255    3.04568369572595    9.82508721178480
H          -3.91017612301955    5.14075460795734    8.22783757773886
H          -3.57585805829781    3.40446959494108    8.26327623294280
H          -2.30974848823971    4.55866963736144    8.70919470847194
H          -2.80401389730353   -1.94911548855739    9.85805865183317
H           1.27462109457059    2.38241805132359    7.97197235384507
H           1.41834318983456   -0.55436950867014    7.07307526967388
H           3.36219801153302    2.66056757359855    7.40437167155573
H           4.86192870378710    4.32935793635676    7.53373434436804
H           7.56632854130405    5.42036410744452    6.73088362661270
H           7.42497179907514    3.86244206780247    7.56989301849234
H           6.39357501419250    6.39841618006375    8.58343230301638
H           7.53637826918218    5.42963337000570    9.25079036947867
H           5.65097595377657    6.00196783663325    5.09879342473830
H           5.14883322127519    6.67909644384363    6.65861528484669
H           3.49820221235032    4.98022415880702    4.95342464587981
H           3.04613251211073    5.67161530136240    6.37791205912527
H           7.74293805594619    4.94669719207976    4.63441595940300
H           8.06633386135781    4.30543731938867    2.21203400415235
H           8.60929312480986    1.88198190174243    1.67030987721842
H           6.79778162741340    0.47699311801642    2.56825979424062
H           4.71802500830912   -0.53432791638216    3.81178118759814
H           2.78947344309627   -1.00227029198504    5.26046566874325
H          10.32231512981488    2.87537935036112    3.56611473074698
H           9.67801619455431    5.86133334406236    3.35909653533922
H          15.23516194237791    6.15264349493490    5.36265302753514
H          16.04925940129456    3.38544482188690    0.95448347825911
H          13.32200522205240    2.26261943432801    0.08636698467312
H          13.23274541300149    1.81067187321027   -3.12450390478424
H          12.34071929060152    1.32012187165896   -1.67922131398253
H          12.68348789013834    0.14063028814938   -2.94804944167954
H          15.14426841112197   -0.77283843821803   -0.26259880629522
H          13.78589664634129   -1.37655367997761   -1.21716628611100
H          13.50778519910418   -0.18937184332542    0.06328485910932
