108
 SCF done       -208.138536966324          0.000212876647
C          -6.09765348004783   -6.99467802465023   -7.70460536143384
C          -5.01793055971079   -6.55704740680989   -6.93252221705719
C          -3.74515223858213   -6.51302801982711   -7.50729760708044
C          -3.55885705413886   -6.89596223125047   -8.83577843684170
C          -4.63875518459924   -7.31868800357891   -9.57917641739133
C          -5.91125568463612   -7.36977136585876   -9.01483485581918
O          -2.65098361051718   -6.11655246581587   -6.81141685576309
C          -2.78077787538717   -5.71818459792185   -5.54168399377383
C          -1.47537527679085   -5.31909820357203   -4.93710598510931
C          -3.96716266324848   -5.70100164675336   -4.88961081576114
C          -5.20717849970877   -6.16711873770356   -5.53316082043745
O          -6.27936960140886   -6.21187608595557   -4.95390672090526
C          -4.15113646971480   -5.26724561459275   -3.50331582567248
C          -4.05102547889204   -3.93874986489588   -3.07726324215463
C          -3.62026306220931   -2.83545222610845   -3.94545320303760
O          -3.29253787031525   -2.87348915494568   -5.09667208216757
S          -3.64133603370616   -1.30995699159096   -2.99825642960489
C          -4.18313380771451   -2.12690684939468   -1.48844915897776
O          -4.31687855570119   -1.53492405583771   -0.45769275482302
C          -4.39657556496653   -3.55471316546260   -1.77464910931756
C          -4.90319388333561   -4.46818952518831   -0.84215348577895
C          -5.02941566268652   -5.79044494252257   -1.28046743818996
C          -4.64400798374114   -6.17951391737212   -2.56463946831203
C          -4.77317907294645   -7.61981377084969   -2.83410030207730
O          -4.37344471394908   -8.23773786922360   -3.77655106507741
S          -5.58540370533624   -8.39041368720514   -1.42961004371449
C          -5.63362807058596   -6.86578848800957   -0.47704056139579
O          -6.11099367192824   -6.79638210312472    0.61744156072396
C          -5.26375872437029   -4.06596447518131    0.52522962604081
C          -6.29017442641340   -3.18083049354282    0.73730168234191
C          -6.57833072616038   -2.74748124178693    2.04516873580659
C          -7.50110483653318   -1.82490402431415    2.54316068787557
C          -8.52912030399375   -0.99811810941268    1.86416677510446
C          -7.92427432250295    0.37728288905656    1.47278555096003
N          -7.77497437265622    1.21532912062332    2.64193942453880
C          -9.17933599771683   -1.64228105541005    0.63254956854154
N         -10.38214369141997   -0.89992922510620    0.29379453206985
C          -7.21795180511542   -1.68247252945474    3.95095700621315
C          -7.71063810697183   -0.81479647634584    4.85625195442725
C          -7.13235903743830   -0.74631420906474    6.22721901263568
C          -6.23447716040516   -1.87992517020805    6.58684734179533
C          -5.74779645199151   -2.73321960267693    5.65903848805995
C          -6.15986964147633   -2.62152143319343    4.31299856513041
C          -5.76918291197216   -3.26044590054456    3.13726383017364
C          -4.75698950700784   -4.20289193829346    2.88844212978918
C          -4.51044078760856   -4.59482737061769    1.60547726678991
C          -8.22030755064443   -0.45138669001695    7.22490386854370
C          -8.72684766576882    0.76946075917535    7.33156115605456
C          -9.88017136174520    1.16008964566887    8.13280454666629
C          -9.97989905084190    0.99843822981828    9.51908998573949
C          -8.92669612084252    0.40477176932227   10.35420779846635
O          -7.83375107265666    0.03258683425820   10.03768738051191
S          -9.51777120134184    0.31238588186687   12.05100339508812
C         -11.08389626601324    1.10184121798056   11.66418872823135
O         -11.92046920223207    1.31228406245073   12.49574858254381
C         -11.11459244563797    1.41753165891928   10.23166060138328
C         -12.18557133833003    2.06107957729480    9.60330769257390
C         -12.07862600079857    2.23092175910567    8.21868441224777
C         -10.96998740458486    1.77498544514340    7.50100457360269
C         -11.07554208120765    1.95148607001691    6.04842409555147
O         -10.29817821783972    1.60163809189188    5.19940613062413
S         -12.61225248113631    2.78728798812616    5.67542825045308
C         -13.08492070246433    2.92749111462230    7.41003870332338
O         -14.03765361788453    3.55329353497250    7.76985951695313
C         -13.44972208522203    2.39580933397355   10.26177084998892
C         -13.59018917984218    3.34827858645624   11.21397117135697
O         -14.76124357395492    3.63774129994697   11.79086312399781
C         -15.87604306991827    2.95541878262854   11.43001793774266
C         -17.06933218628253    3.28796202371633   12.07159643089440
C         -18.23141943028880    2.63343925414798   11.72722026726854
C         -18.22412309540191    1.64675648574048   10.74403381199323
C         -17.04912770315013    1.31767153182769   10.10895811598122
C         -15.85674052579802    1.96473481115652   10.44500611760878
C         -14.60474868132962    1.63162321177385    9.76066766454973
O         -14.51729270412061    0.80449699890740    8.86886278660605
C         -12.48094928998758    4.20613783545663   11.72673109084803
H          -7.06948179598011   -7.02532401588578   -7.23612018092497
H          -2.56592673947103   -6.85289505763382   -9.25453829767576
H          -4.49494266493877   -7.61408861668545  -10.60738684795134
H          -6.74830902655703   -7.70465916206559   -9.60777556497458
H          -0.68520169748786   -5.95817151496552   -5.32380495501807
H          -1.50887673110226   -5.38529068741295   -3.85384746379555
H          -1.25174723342238   -4.29097853385787   -5.22289062162576
H          -6.85377485640062   -2.80932005740720   -0.10240653542416
H          -9.32876879344930   -0.79017643124137    2.58412257221691
H          -8.59733266419305    0.80329829292542    0.71496332988996
H          -6.93901050216732    0.22081661203942    1.02627612213075
H          -8.67547216024349    1.55580595163640    2.96251671269028
H          -7.17416878995608    2.00719157855592    2.45379738154340
H          -9.36304144981479   -2.70946160291106    0.83912815231599
H          -8.50990887460830   -1.56671286751103   -0.22691571900993
H         -11.08029204188691   -0.99893823520866    1.02345469971301
H         -10.78457394448777   -1.24410181308002   -0.57017610684294
H          -8.48635060245015   -0.10319843270182    4.62264016525804
H          -6.48912400372309    0.15252590160433    6.19710141488076
H          -5.94315735028975   -1.94572841248742    7.62362673513852
H          -5.05077458850639   -3.51022019945596    5.93627653934222
H          -4.17090915201541   -4.59295855861092    3.70670105443082
H          -3.72118978880378   -5.29915586767488    1.38845318193804
H          -8.61758372713336   -1.28783148576451    7.77878465779972
H          -8.32999659960866    1.56413626799507    6.71040967854829
H         -17.05587681077655    4.05702777219497   12.82756168857350
H         -19.15491636889743    2.89068105154849   12.22338232103884
H         -19.14192560639298    1.14324533911578   10.48232755547039
H         -17.00971934399143    0.56062117282587    9.34079506475748
H         -11.66448843969559    4.25979675951987   11.01294037627070
H         -12.10833337216583    3.78364251745442   12.66011979908850
H         -12.85950082239277    5.20424549066269   11.93357482146606
