92
 SCF done       -179.484700074835          0.000614424837
C           0.39223480805991    1.64870585988048   -0.48332769653409
O           1.67757387490265    1.18409864541736   -0.10088022963372
C           2.54496158475066    2.18544936907596    0.26296861010328
C           2.67225777814867    2.66712285540172    1.55144218907713
C           2.01319774756076    2.24009541203695    2.74820866477893
C           1.31493200571446    1.09651785722773    2.84483916621470
N           0.68105576605692    0.68260969929141    3.97764892224014
S           0.38056117782241    1.62879191304752    5.33922551546738
N          -1.24323590875702    1.03305214217418    5.29760474763455
C          -2.34572409137943    1.67002387615831    5.75525355625991
S          -3.58734636136649    0.81449023967379    6.63244226004007
C          -4.52169555334520    2.26639469375007    6.84218693455770
C          -5.76637859654786    2.27867657503469    7.60503561796356
C          -6.84963101808788    1.56118666726408    7.21526017797137
C          -6.88401628381255    0.70303161925460    5.99180941721598
O          -8.01008772576043    1.54447535055883    7.88981719519303
C          -8.14013148227976    2.29344548684449    9.01382629873957
C          -9.37041648157909    2.26198754614458    9.67089374909311
C          -9.54725761128043    3.00414450669331   10.81794080045973
C          -8.50919945107942    3.78201231077524   11.32525087974886
C          -7.29484314339076    3.81263204774961   10.67942023706673
C          -7.09175587387279    3.07035009993350    9.51299455641135
C          -5.79032559676492    3.08819688501562    8.82914486661618
O          -4.82364747238647    3.69599803422906    9.25731128903558
C          -3.89603088939379    3.34541312448661    6.28333426432701
O          -4.47893005655873    4.57083774759126    6.26235499999101
C          -3.81671927253036    5.58277195075757    7.01350567873989
C          -2.66798953209173    3.00369229503377    5.62715852466044
C          -1.88589235803031    3.94392592232589    4.77960902351347
F          -1.36628920161846    3.33821583913393    3.69035458205754
F          -2.61536208796356    4.95909141737010    4.30388131171087
F          -0.83477460158376    4.50944371276070    5.41676827232546
C          -1.15248724894035   -0.40194562881236    5.10994452664208
C          -0.89651829989681   -1.15752127779705    6.41589239580802
C          -0.75658633113525   -2.64728775667683    6.13677719207503
N          -0.36439466901315   -3.37306926884440    7.33405548385317
S           0.39080329907045   -4.79223105565727    6.79260557590194
N           1.24350034397772   -3.86888659868423    5.57452902596270
C           0.27820780815310   -2.94285515886805    4.99898690611993
C           1.00759496068044   -1.67434707325472    4.56171026160546
C           0.01823424598342   -0.59961992810999    4.10157489332308
S           3.86941184259474    3.91598209125778    1.61861922767828
C           4.15993008120177    3.83944451099199   -0.08364053924030
C           5.18021273541766    4.70578617922676   -0.64911249979759
C           4.98542178698067    5.49997682765270   -1.73491869682449
C           3.68501989896110    5.68735352602809   -2.44397998354369
O           5.95560524140702    6.25632774532590   -2.27408179812787
C           7.20865482049262    6.21528547401626   -1.76024636658263
C           8.20262488636500    6.94178920003009   -2.41668405680281
C           9.48642024411169    6.93990824395899   -1.91726125022318
C           9.79732732667381    6.22475071447115   -0.76291807360197
C           8.81724869701241    5.51365791699186   -0.10995996987035
C           7.50896648472799    5.49634037847233   -0.60085638359914
C           6.45343176991870    4.74792303014144    0.08993408520689
O           6.60667193980026    4.21869684120891    1.17706893995812
C           3.39964528843246    2.84649904943073   -0.66074372810744
C           3.48558215611054    2.39878123694270   -2.07882124596685
F           3.44664527899875    1.06796253929054   -2.20918911253553
F           2.46756630537353    2.86977807402228   -2.84406999486400
F           4.60989587181545    2.79478660812032   -2.70354926554741
H          -0.18109863499855    0.76078813309234   -0.74213013421590
H           0.44897552340243    2.30907403798084   -1.35342137040864
H          -0.09304461629569    2.17917182638123    0.34266745615299
H           2.11339802196462    2.88237995874305    3.61190140120960
H           1.25267202087139    0.40778707923948    2.01557948189802
H          -6.35227237605763   -0.23071498435097    6.17180603407960
H          -6.40512655770966    1.21340050959089    5.15981092623762
H          -7.91633007880663    0.47458696822680    5.74093884147939
H         -10.16242781698760    1.65348031494014    9.26361761526147
H         -10.49931918395144    2.98061291127062   11.32604990579949
H          -8.66026080594707    4.35797127188185   12.22515635065802
H          -6.46929474638141    4.40235586602459   11.04806625392255
H          -4.38158541245245    6.49356538523532    6.82990667926567
H          -2.78232549683182    5.72327907362761    6.69256338039319
H          -3.83942386968918    5.33187625866520    8.07715687229861
H          -2.09707081830536   -0.74299134171271    4.67349131679734
H          -1.72552825290135   -0.99890204772327    7.10597010052208
H           0.01094595272784   -0.76985808988865    6.88284291440874
H          -1.72835522779334   -3.05449474159884    5.83221402995451
H           0.28181757251878   -2.82854648205321    7.89987124368153
H           1.67159966068341   -4.48512497793161    4.89584627572177
H          -0.25523683508078   -3.36930964693391    4.13573804962389
H           1.69329734935420   -1.90410258036517    3.74501258823003
H           1.60609615576837   -1.29750358999918    5.39189130760547
H          -0.38518217934615   -0.87237680240775    3.11981278365533
H           2.85392770708522    5.36528052311106   -1.82447270454471
H           3.67566129158564    5.11956908053282   -3.37321230521646
H           3.56941671316143    6.73861928541079   -2.69991165900868
H           7.94300025610410    7.49023355263612   -3.30828910218830
H          10.25680531058643    7.49857953879637   -2.42682155782475
H          10.80721552815143    6.23227541338946   -0.38278557075648
H           9.02338298878456    4.95299015323439    0.78898266335460
