104
 SCF done       -199.816718077607          0.000777203934
C          -3.77244552619993   -6.96658183958507   10.52353359399797
C          -3.59422599907814   -6.44591206910595    9.27145808574228
C          -2.46877451984488   -5.66891829917669    8.93886871473279
C          -1.48210076137735   -5.39662289963826    9.85362158477768
C          -1.63883344064116   -5.91115796539621   11.16043154531689
C          -2.79146536517592   -6.70183271739246   11.49313975848950
N          -2.76610741321274   -7.09971576019139   12.76677278641902
S          -1.43552206084455   -6.53553735198415   13.45797652586174
N          -0.81928937066968   -5.74728757238633   12.19967951586497
C          -0.28533511171078   -4.60724966193859    9.55748979013405
C          -0.33929521890855   -3.28443128482631    9.12424714575227
C          -1.51684825830404   -2.42924108273705    8.83480640231480
O          -2.68730039371026   -2.70864676976644    8.89477760970117
N          -0.99438514169707   -1.18388877484806    8.47305541360172
C           0.40675888233356   -1.15881438271741    8.51969864741204
O           1.08444634804265   -0.20004397123584    8.25913821127974
C           0.81645248950073   -2.51393708155006    8.94599025669489
C           2.08119908739203   -3.01200697665047    9.19163100606623
C           2.14716884335469   -4.33816437030501    9.60519896459232
C           1.00360266819060   -5.12222705576170    9.77061638084498
C           1.28066774451780   -6.52403606563166   10.12770522279326
O           0.52128372149628   -7.44319688465155   10.20168619152880
S           3.05377823805066   -6.71507387306179   10.38577079874923
C           3.41678104484264   -5.02221357834124    9.91350194390744
O           4.51992339343679   -4.56688045171300    9.87091238057149
C          -1.69919310408296   -0.03814520798048    8.10880829757003
C          -3.02539165667832    0.04552080850506    7.96154296786278
C          -3.75320493876662    1.23870365578025    7.58406886730900
C          -5.09324543132768    1.11978973871414    7.28180984767492
C          -5.84836004425513    2.24592914443117    6.90085271057272
C          -7.18556772899174    2.39689099678011    6.54076174819587
C          -8.25652465261693    1.36798260865962    6.44500219820318
C          -8.01867025054318    0.43885710971703    5.23653308328501
N          -8.23799121369614    1.17284903849091    4.00274705840529
C          -8.41658524845164    0.53805091412405    7.73151898955239
N          -9.64866888161253   -0.22897857309258    7.65782103775828
C          -7.37492132176884    3.79090895034575    6.21623366509109
C          -8.45380016208994    4.46268515938675    5.77072675671700
C          -8.40840361312438    5.92634456702185    5.51497971998562
C          -7.07003869563207    6.56076095609054    5.72430589346826
C          -5.99817183878016    5.87224777660601    6.16522276088038
C          -6.09942644390260    4.48711772983642    6.41881556964776
C          -5.18019443724369    3.53652096078565    6.83385961538530
C          -3.81273994401834    3.63681719163750    7.16385176004181
C          -3.12476570521210    2.52152412773078    7.52659978371348
C          -9.35892794800445    6.63046218568637    6.45248554568039
C         -10.25783303094248    7.52473220720452    6.05328172476091
C         -11.13355809504419    8.26002399945090    6.95143400816953
C         -10.70685295600791    8.83009118476377    8.15526971650482
C          -9.34972449014218    8.90841639036111    8.75600443355344
O          -8.30319970261286    8.49442438934941    8.32000822590891
N          -9.50350124391844    9.60604690176820    9.95424326260202
C         -10.82532903343409   10.02519128526974   10.16135195749626
O         -11.21307400093187   10.64777707782199   11.11329073516809
C         -11.58280648250272    9.53836364299567    8.98839462033568
C         -12.91648534157743    9.72596144359550    8.68053096647361
C         -13.35024985362968    9.17828849372914    7.47949036973529
C         -12.49100512698648    8.46686780932021    6.63557512773127
C         -13.14004662770666    7.94339180455538    5.42649022676219
O         -12.66510922638608    7.27340368300895    4.55394691170384
S         -14.86734143937511    8.45087763536138    5.41899047425527
C         -14.73547386168062    9.29988447242364    6.99746100184791
O         -15.65139199550468    9.85335817196564    7.52802131777783
C          -8.52007595367398    9.89371708647089   10.89897898190051
C          -7.24731521819421    9.48886842619680   10.84165390275995
C          -6.25433345230862    9.78378159860623   11.84898481702782
C          -4.97122435198384    9.28538525555829   11.71634254667898
C          -3.95486840025462    9.52195347015932   12.65511326298233
C          -4.17216684658537   10.27439632851862   13.77724492063648
C          -5.45718617188168   10.80833456984557   13.96418103754874
C          -6.50702268586987   10.56838355678639   13.00609038700942
N          -7.64498971239633   11.16015703879019   13.36942914458576
S          -7.41578488317459   11.93121370519450   14.76070125648552
N          -5.87078211110644   11.56288214105641   14.98422649172256
H          -4.62851270552516   -7.56862401327989   10.78133319442180
H          -4.33027968206780   -6.63351696890510    8.50457486368631
H          -2.37101118002911   -5.29734937348996    7.93038129079961
H           2.97102573857670   -2.41448806033043    9.07370095429215
H          -1.02566876587988    0.79073784880389    7.93897084029411
H          -3.62789626278176   -0.83657663628070    8.12067879150860
H          -5.55736377710326    0.14637865409974    7.32284918478127
H          -9.21018122879872    1.87857416575905    6.27241767881065
H          -8.68172246100659   -0.43118645396084    5.35793714268375
H          -6.98263296747985    0.09384508346736    5.24160260982961
H          -9.22552753126638    1.37106834502316    3.88060145417400
H          -7.92890747164548    0.63163319137740    3.20422302441471
H          -8.37371076579177    1.21945098073963    8.59785242645451
H          -7.59660283386370   -0.17505457424920    7.82423413126576
H         -10.45437440824053    0.38709328520658    7.69318329557929
H          -9.71593659417613   -0.87223622882002    8.43800132315907
H          -9.40455510319237    3.97867614760459    5.59739396472403
H          -8.74523131154962    6.11537519528869    4.48666503368204
H          -7.01861082409427    7.62127166951589    5.53684301488042
H          -5.05002056155734    6.36772029770174    6.31379528777418
H          -3.32467066095621    4.59940834635420    7.12487416021646
H          -2.08182667528749    2.60145335389384    7.78768287167912
H          -9.23175352822316    6.38421617523382    7.49565060865852
H         -10.41198878069764    7.70952797249181    4.99876365197877
H         -13.58528493522332   10.27361020483303    9.32480055289857
H          -8.89657591983749   10.48606314145570   11.72199559961492
H          -6.90015881226479    8.89754425167870   10.00739575383026
H          -4.74043335566963    8.68311480103703   10.84954665056434
H          -2.97905072604962    9.09469047782404   12.47818599933911
H          -3.40222423143638   10.46535385076822   14.50645645978252
