110
 SCF done       -192.063611044754          0.000991587710
C          -1.31363532194237   -5.28136721471981   -4.70778386636189
C          -0.75470645740686   -5.43774726690827   -5.98879490324787
C          -0.57269636253034   -6.71811942528581   -6.49458615069874
C          -0.98358753034691   -7.83907073421451   -5.77352402087004
C          -1.57143832413332   -7.66300293714114   -4.50051432164252
C          -1.71341372655062   -6.37349065106804   -3.97693345302982
N          -1.97385943845893   -8.76053589650502   -3.80209189799183
C          -1.86703528323857  -10.08193750680561   -4.20925952732247
O          -2.26642519538970  -10.97245604256261   -3.49464602650519
C          -1.24822527231807  -10.23955347236053   -5.53281047552906
C          -0.83406631328746   -9.16999683288775   -6.26143126134965
C          -1.09676259242158  -11.55417176056360   -6.03025368613440
N          -0.96163600525498  -12.60915369377848   -6.45514978238693
C          -0.30927602011546   -4.31073141998550   -6.78217372364776
N           0.76472931457190   -4.42717542142961   -7.53465406986940
C           0.95446774021410   -3.21321332820035   -8.10334526507953
C          -0.09020919614192   -2.26770517543980   -7.69434126944847
C           0.12991282068144   -0.96261075100204   -8.33070560803234
O          -0.52875279563560    0.05474645088359   -8.23274676142423
C           1.35468927441945   -1.18554083882093   -9.12178928181521
C           1.82380428951147   -2.57557113961392   -8.95252688559878
N           2.94413422404709   -2.79504731869403   -9.68466201892331
C           3.18887225778045   -1.65712820802487  -10.28532409646650
C           2.23300102087602   -0.60934246973251   -9.98136864917782
C          -0.93088098890376   -2.96813639624479   -6.85648129459962
C          -2.15191137025633   -2.58095244205070   -6.23677080785118
C          -2.60661144595057   -1.30590623703285   -6.27628205155855
C          -3.78718190061849   -0.78094143688059   -5.65267505818275
C          -4.06094424144874    0.56365204427256   -5.82437185434542
C          -5.16031970756007    1.15969081189723   -5.18521257119923
C          -5.61818059028198    2.47394688578848   -5.16447124505513
C          -5.11875974453495    3.65114478136256   -5.92843937286980
C          -3.60951860313550    3.90127346646297   -5.73509285099861
N          -3.34689046982450    5.32654966308361   -5.83873825044851
C          -5.47739565267985    3.49751370129662   -7.41834907374131
N          -6.92381748701191    3.43282125694034   -7.58082863856443
C          -6.77963984262269    2.49528249177351   -4.31211413320744
C          -7.58714631415238    3.50643661089716   -3.93901221936622
C          -8.81935711239616    3.25331090462351   -3.15254721497562
C          -8.93254290008596    1.86978593574400   -2.58616407976713
C          -8.09167379608089    0.87574624401341   -2.93992864732442
C          -7.01547838736419    1.13039925138358   -3.81870597336213
C          -6.01870994037711    0.33132612359715   -4.34766001596088
C          -5.73599779714466   -1.04693541053240   -4.21026464224744
C          -4.65806229526494   -1.57960913648044   -4.84027854028986
C         -10.02383978028199    3.31235608305651   -4.06430828207481
C          -9.98540179239403    2.96168518049919   -5.35976521735947
C         -11.14336708893338    2.97840385836772   -6.19091248269529
N         -12.31934951058333    3.41673172904988   -5.76471515113834
C         -13.15595117829342    3.30213534639821   -6.81334456805209
C         -12.46664091404426    2.74911524129125   -7.99305362800235
C         -13.40115551346015    2.63365443804348   -9.12296817812770
O         -13.18380497084945    2.22446586837513  -10.24562293737606
C         -14.66243347869897    3.13958144644903   -8.55542825078486
C         -14.46812838980818    3.53702290508012   -7.14633029531009
N         -15.62504296425949    4.00344830182014   -6.61685576934549
C         -16.50254250608993    3.92320083741190   -7.58861462075035
C         -15.97044301488720    3.39021748602895   -8.82456918865235
C         -11.16824378414235    2.53519102685402   -7.60562969638720
C         -10.04865811320203    2.00170180961715   -8.31181301133448
C         -10.12300406351555    1.58951992384633   -9.59366499226740
C          -9.04317993018488    1.03132288348669  -10.37373049807729
C          -7.76844488330238    0.75011041097864   -9.84029009371053
C          -6.77043778761246    0.22048510625705  -10.61929432144103
C          -7.00098023706023   -0.05653178934083  -11.97123163104029
C          -8.27078117649741    0.21055042993492  -12.52776642521126
C          -9.27075332127473    0.74885321927651  -11.71580198682781
C          -8.46988452902976   -0.08952174933377  -13.90582575093762
C          -7.47350900422575   -0.61616804355678  -14.66607209502646
C          -6.14476625238291   -0.90309574898941  -14.10937013195783
O          -5.20308206469198   -1.37096393189248  -14.70957983438674
N          -6.02746295005074   -0.58343206886512  -12.76684291765856
C          -7.68804381439337   -0.90774899797440  -16.03184776681144
N          -7.88686248195857   -1.13246189959022  -17.13752856332078
H          -1.38348159679691   -4.29697709992673   -4.27114994769664
H          -0.11337667003411   -6.83662203730352   -7.46336175902282
H          -2.13072942882018   -6.24687925013145   -2.98862816105645
H          -2.39199459451410   -8.62823442927895   -2.88746995671088
H          -0.38025235915651   -9.31681266962219   -7.23163836328461
H           4.04013901855276   -1.55771978143425  -10.93609215431279
H           2.25686149061747    0.38820985522765  -10.37377216963375
H          -2.71525264070193   -3.36002778957797   -5.74362960486572
H          -2.01225265984872   -0.57793354828994   -6.81326323751794
H          -3.40655353451009    1.15574044580291   -6.44523566722979
H          -5.62340204078526    4.54771630183498   -5.55434591128909
H          -3.03266247526539    3.30102526751256   -6.45458190642272
H          -3.32595689767540    3.58780049468030   -4.72708330584512
H          -3.47505526633877    5.64574239271596   -6.79332350088527
H          -2.39139469585125    5.53370122039227   -5.57232225567492
H          -5.06216140554790    2.56106755684191   -7.80102412896109
H          -5.02146203154530    4.32959892495815   -7.97945242752806
H          -7.34562547643993    4.29189379141043   -7.23879740456410
H          -7.15431901079022    3.36185374868388   -8.56737591265203
H          -7.42122755975319    4.52507801387870   -4.26003903502616
H          -8.93411119521059    4.00789952869420   -2.36689891899971
H          -9.76548067508139    1.69253663199152   -1.92452555191526
H          -8.22019286015238   -0.11911010249439   -2.53876569026555
H          -6.37930662409129   -1.66191002962584   -3.59807267744586
H          -4.44057276597448   -2.63047487148922   -4.72764907383437
H         -10.96902426406386    3.58795405720472   -3.62040405419335
H          -9.05260132422002    2.66249501186175   -5.81648280297896
H         -17.51959228216773    4.23661748909598   -7.42809838294727
H         -16.52434334281787    3.24415388732641   -9.73082042130587
H          -9.11741206412103    1.94551158562082   -7.76679959737721
H         -11.06905822365469    1.67876584029349  -10.11186755722858
H          -7.56805591809969    0.94612532584029   -8.79865865863423
H          -5.79974689874807    0.00779883433843  -10.19494443073940
H         -10.24101508105343    0.95011268098407  -12.14533646106815
H          -9.43795785067640    0.10952112533159  -14.34471715551074
H          -5.11884781794028   -0.77389376494102  -12.35849793074801
