82
 SCF done       -148.365233831000          0.000366862163
C           9.35261335957744   -5.15822765459273   -1.51091472534326
N          10.47095820190860   -4.94528620099977   -0.88856075358723
C          11.52468759278837   -5.44420298168218   -1.52712935047657
C          11.24536541154625   -6.08817912150121   -2.71768011251063
S           9.54273498772653   -6.04810010417209   -3.02952206356137
C          12.14978774780283   -6.70111312369744   -3.58514575613844
N          12.89871631868570   -7.20688963690868   -4.29262881028093
C           8.06984606128021   -4.75205301691956   -1.06633079881123
C           6.81665884549638   -4.96803857432051   -1.78494058609760
N           5.76215402233260   -4.52136296983984   -1.16297595314321
C           6.22515291386579   -3.97960615345014   -0.00405242116031
C           7.68527112137862   -4.09661147600908    0.08533555208251
C           8.15167432381780   -3.55295659066529    1.33931752760150
S           9.70087860750466   -3.54311463316525    1.88838055956261
C           6.95361794980552   -3.09501053928801    2.00078559968476
C           5.78477823898076   -3.38227670991008    1.15275057546309
N           4.63051989002259   -3.02047183070420    1.77576270920647
C           4.99508961517065   -2.57746438167781    2.94555225306583
C           6.43997438392394   -2.59143459464650    3.17962779419707
C           7.06787180252628   -2.14479902077310    4.39173186274839
C           6.37664688295054   -2.22240903199662    5.58799340276706
C           6.99930292824753   -1.84430360887443    6.78813576954259
C           6.55854151666525   -1.87596775563490    8.11181061564767
C           5.24321685412079   -2.31614692595720    8.65535225540163
C           4.08825708081103   -1.48496537002518    8.07123893608360
N           4.35729379368544   -0.07423184009571    8.28255727917022
C           5.02512228587488   -3.82518254830470    8.43402264001168
N           6.00699920124809   -4.55835488311618    9.21262468358168
C           7.65532604387827   -1.40548387162514    8.92277916574790
C           7.78923212108939   -1.31972587042517   10.25981510250902
C           9.05519765286215   -0.84098272606011   10.88345919846289
C          10.10120151462361   -0.40312054929011    9.91378546335989
C           9.96344581982233   -0.52938387162562    8.57957159478321
C           8.76645241319419   -1.04976858587013    8.03417775902995
C           8.36284352788013   -1.33385699961478    6.74113324144271
C           9.03051893701017   -1.23287229963116    5.50132505816374
C           8.40315174172465   -1.63695708305047    4.36555849438514
C           8.70805388201879    0.18749804312274   11.93107906838187
C           8.96965797087007    1.49293791999964   11.82169669089717
C           8.63661356453660    2.46609317131214   12.81778761059174
C           7.93742329626067    2.26012272560195   14.08756099637805
N           7.77921696741477    3.34296804482675   14.79902228343595
C           8.35404160327521    4.34153575916618   14.07418689664886
C           8.90020937588832    3.81599251224535   12.81331057260274
C           9.51621214282824    4.87677110483383   12.05585402475736
S          10.26498005031963    4.74985022372339   10.59993379882178
C           9.33237226590985    6.04735613341558   12.87761624895407
C           8.61530834309346    5.69002688137865   14.11379579093360
N           8.44158870985827    6.78118979354057   14.90697653833505
C           8.99290926111610    7.77221139506420   14.26446245089129
C           9.57943085376795    7.40075298926997   12.97972628377328
C          10.23920379972941    8.28390397452091   12.08941559710543
N          10.74572986058858    7.95707699091767   10.94043837485192
C          11.30968265800351    8.98264954118520   10.31044602980176
C          11.25646195819045   10.19075941306846   10.97985557513112
S          10.43965254962241    9.99569148267429   12.49390254161112
C          11.76444823174300   11.41972630009474   10.55822774095625
N          12.18386469588713   12.42824632942505   10.20612665074644
H          12.50820912324088   -5.32990504343200   -1.10819344154136
H           6.73010742800548   -5.44567532850728   -2.74567840253069
H           4.25709346162768   -2.19741624195283    3.63055854566039
H           5.37514213871466   -2.62317457887365    5.59957464560348
H           5.25115814634632   -2.15843238572429    9.73804917262295
H           3.14546142235482   -1.83076765190652    8.53005244104367
H           4.01341286001498   -1.64523421344702    6.99438869891769
H           4.37843235935017    0.14005957864161    9.27406123743044
H           3.63427702266980    0.49474667269972    7.85760770752555
H           5.06314608238695   -4.04924978393398    7.35691040346361
H           4.03345869261047   -4.10019407469619    8.80397187329610
H           6.93910278580573   -4.38844531589400    8.84791186373869
H           5.82883218070929   -5.55504342232695    9.16721640793901
H           6.99460797257025   -1.60443841098624   10.93518914902845
H           9.46986356453726   -1.70338733901322   11.43644453838878
H          11.00695982579514   -0.00516996762831   10.34504933171039
H          10.75868724616364   -0.23115131941894    7.91286310879332
H          10.03633379593601   -0.84278399065677    5.46646890449614
H           8.90282448690956   -1.57323247622348    3.41277702147306
H           8.19169210861545   -0.20085275332717   12.79778489763663
H           9.47239554973006    1.87943988287148   10.94504903417669
H           7.55965176109412    1.32198554641971   14.45401852983799
H           8.99329652146531    8.76577871472830   14.67891727337804
H          11.76406971057892    8.83499630932550    9.34734152972521
