103
 SCF done       -182.551382531457          0.000613659872
C           4.47808030181486   -6.98674794464913   -9.00160007940573
S           5.87816157419679   -6.67817479714518  -10.00816467579904
C           4.93175100623816   -6.92922965454560  -11.51003815251198
O           5.37320107085480   -6.79625875488233  -12.61205889111400
N           3.66298148891626   -7.29977099405319  -11.17161339170056
C           3.33258714728161   -7.39947979277634   -9.83141148332488
O           2.26836713430157   -7.82335651142293   -9.45235260136029
C           2.67932588104750   -7.60293507893624  -12.18922050529959
C           4.51949824227990   -6.93041783844068   -7.65291726247824
C           3.39868881553887   -7.03141512689011   -6.77448323643617
C           3.43594557065206   -7.70137289026396   -5.47086696382369
N           2.30396163540231   -7.68718251995075   -4.82900881140746
C           1.44661009635141   -6.98313393161240   -5.61857524838249
C           2.11483315638860   -6.54591756129867   -6.85446516553460
C           1.21806506167999   -5.72814983185407   -7.63529766137832
S           1.59647102393190   -4.92617092591127   -9.02026649358382
C          -0.02061394180360   -5.73436878795228   -6.89588902820709
C           0.15594620209504   -6.52598920563856   -5.66199218142711
N          -1.00351542551600   -6.58159570573511   -4.94964766999960
C          -1.87298887314274   -5.92105368026133   -5.65671963201588
C          -1.34478789391182   -5.34593241057766   -6.89749824596003
C          -2.12523937671062   -4.54340547313077   -7.79902249316640
C          -3.49778349015128   -4.70409873610116   -7.85744877262322
C          -4.25903886816545   -3.91234666554185   -8.73057522152483
C          -5.63241028017585   -3.88276390012893   -8.97324860662615
C          -6.65149702270966   -4.76652698674304   -8.34991818432735
C          -7.55697673457149   -3.98451161104700   -7.37506856698867
N          -6.79517490488886   -3.60303802413007   -6.20015789270444
C          -7.50408751619631   -5.51524843389354   -9.39245145768379
N          -8.31156163753693   -6.51833507940311   -8.72172668145624
C          -5.86095306018287   -2.82446174353428   -9.92851182180927
C          -6.98999036407752   -2.30983779174006  -10.45508959823377
C          -6.95755022458979   -1.20877933428441  -11.45568246684040
C          -5.59882586974748   -0.65652951676351  -11.73975175637216
C          -4.47797957487606   -1.16453567650436  -11.19108218251156
C          -4.55569011602462   -2.24151096550825  -10.27932584931533
C          -3.59263588101406   -2.91012688405602   -9.54488668521355
C          -2.18994297112900   -2.77006207154669   -9.46786559658488
C          -1.48384531500780   -3.56695578431323   -8.62372941307589
C          -7.51318204844935   -1.75313077459082  -12.75136331745786
C          -8.59938655595250   -1.25977746452166  -13.35383713172620
C          -9.14358364288848   -1.73877618525958  -14.58699641659554
C          -8.64991152218960   -2.81637402651021  -15.44578375070686
N          -9.37320647993658   -3.03360964289388  -16.50931695152313
C         -10.39024394607999   -2.12935616118112  -16.45226175325859
C         -10.26268712465375   -1.28883226872583  -15.24726614587975
C         -11.34674797895086   -0.34606975132940  -15.18431340638010
S         -11.70910231494087    0.69633038472284  -13.96212791041475
C         -12.10326937214723   -0.59827004811291  -16.38247686827555
C         -11.51493871568599   -1.72692008045911  -17.12747460553841
N         -12.28437812924245   -2.03698548591554  -18.20694520446251
C         -13.29905323510419   -1.22040615426599  -18.16391066779940
C         -13.25851961164326   -0.26828629709374  -17.05233861793999
C         -14.25382542896489    0.69578469272206  -16.71471235557659
C         -13.96929720003853    1.88190500711460  -16.12450698429383
C         -14.88591800091531    2.80647059434856  -15.47678250102537
C         -16.25302069643788    2.74964330988868  -15.48741834567799
C         -17.09132348442755    3.67846982677895  -14.83393367697657
N         -17.82916029619740    4.39735138325077  -14.32761218705263
C         -17.01597538720903    1.78216018635289  -16.17526715062320
N         -17.69529461501211    1.03041952498725  -16.71526523639007
C         -14.07422112530459    3.80904967597340  -14.79431404758801
C         -12.72031088218875    3.61430531255013  -15.12558443026426
C         -12.59507834202569    2.47957929128889  -16.05348162506603
O         -11.64176113209855    2.18810225403627  -16.74084335627656
C         -11.73452751085779    4.44000421980954  -14.61962702762367
C         -12.10703760972736    5.45928509033646  -13.75948524635497
C         -13.44196639532811    5.66442556392421  -13.41192016104471
C         -14.43168299887213    4.83513356620856  -13.93508436821115
C         -13.81697389714164    6.75722803741538  -12.46240267613831
H           3.04526351666239   -7.22897833181914  -13.14281601468249
H           1.73989540839068   -7.12052814469252  -11.92156374763860
H           2.52159615007282   -8.68082592971694  -12.24829680583378
H           5.48450170721756   -6.79629605746530   -7.17844316936340
H           4.29835211280820   -8.19594688503716   -5.05904774042332
H          -2.87835843681943   -5.79563024464910   -5.29388762795266
H          -3.98455099315702   -5.45158438086893   -7.25029989158173
H          -6.13013099624494   -5.52627921851915   -7.75796415911958
H          -8.42361509586135   -4.62605855851551   -7.15465441591875
H          -7.91203281807536   -3.06962004006400   -7.85347708577753
H          -6.58638712929518   -4.41784260796375   -5.63304681883819
H          -7.31900861753180   -2.95228878630162   -5.62738559254896
H          -6.82981332137093   -5.93326100401307  -10.15894043161489
H          -8.18770977096238   -4.82384440326657   -9.88809512949717
H          -7.72395469641912   -7.25464740207949   -8.34445743856342
H          -8.96481961849343   -6.94440205213658   -9.36869553763317
H          -7.97115093383235   -2.68649051288184  -10.20495996164268
H          -7.62169430140632   -0.40097799126380  -11.12037231066354
H          -5.56118961647727    0.16320261507203  -12.44042812872262
H          -3.51038373401736   -0.74540857772476  -11.42475462581810
H          -1.69019531079129   -2.02934851495751  -10.07355218797559
H          -0.41352290391319   -3.46641949880352   -8.55008701816942
H          -6.95079617425089   -2.57056522587052  -13.17815108848498
H          -9.14347786092591   -0.43675290892257  -12.90670819106801
H          -7.76731531032119   -3.40522781110641  -15.26780273304367
H         -14.06856554702716   -1.25677978144659  -18.91536859504652
H         -15.27927683564961    0.40684591970050  -16.90756528974007
H         -10.70268112723219    4.27777225239507  -14.89047439685206
H         -11.35161545290158    6.11183068298840  -13.34631331197393
H         -15.46080415750534    5.00339483192800  -13.66064224835215
H         -13.09561688643344    7.56985554748421  -12.49617060674063
H         -13.83871174691573    6.36677562738703  -11.44435073349762
H         -14.80601988773191    7.14652243544546  -12.69089221277629
