100
 SCF done       -166.764337579316          0.000573193184
C          -1.69447060303508    1.90150045561946    4.66127533296460
N          -1.55621205319000    1.78637972314043    5.97187478982166
C          -1.72973806675915    0.57406185966871    6.47790275181866
C          -2.03748701011186   -0.51891363562024    5.68577773265652
C          -2.15684230260766   -0.28921318918495    4.30890666306636
N          -1.98123393310984    0.94206182378255    3.81030525369187
C          -2.46588626101560   -1.36236317935433    3.39136843953729
C          -2.58702716528168   -1.17181043806073    2.06145234157144
C          -2.87797408249768   -2.23651121366031    1.15910516504087
N          -3.03845648977424   -3.48286394758611    1.58027856290269
C          -3.27817613031579   -4.21763226264522    0.47599589505779
C          -3.26967254924518   -3.38829176390579   -0.73476696115638
C          -3.52440461144587   -4.21635992802951   -1.92004916322402
O          -3.58329594870392   -3.88126605470861   -3.08756837168118
C          -3.68847395568884   -5.56620787771685   -1.34825585982444
C          -3.53101142279563   -5.52253038748772    0.11624987309427
N          -3.67798832455035   -6.75855487534238    0.65214377241270
C          -3.91126121856767   -7.54805271457050   -0.36978735536892
C          -3.93120699486380   -6.86933577031535   -1.64804370294085
C          -3.01789755344598   -2.10243991595665   -0.31028761954953
C          -2.90755532428699   -0.88552694255308   -1.03626126992850
C          -3.01227056377603   -0.83650894072356   -2.38565419934984
C          -2.91644593622382    0.32497492449043   -3.22211222313890
C          -2.95331962746070    0.13171984367718   -4.59451629382441
C          -2.85638403594647    1.21655884615829   -5.47703307591518
C          -2.86076176274485    1.30152044725476   -6.87443601426698
C          -2.80048745191319    0.25208105222083   -7.92326400696176
C          -1.30894681885196    0.05173925808740   -8.32442233116383
N          -0.83292720864539    1.17728884814215   -9.10202866317879
C          -3.41554358172737   -1.10414584356988   -7.56080519128689
N          -3.54671592349808   -1.90080798402087   -8.77166448109713
C          -2.70900223148809    2.69275510312569   -7.20497161895214
C          -2.66576481437108    3.31193467468291   -8.40223391033808
C          -2.33335321630681    4.75592646340600   -8.49270588955486
C          -2.35019302357235    5.49505173488808   -7.19224147135919
C          -2.45307312568476    4.86131604232956   -6.00318719835104
C          -2.61036493101111    3.46075985477179   -5.95886003859391
C          -2.71958552530781    2.55358017154552   -4.91667361784471
C          -2.69605914628408    2.73051283103156   -3.51697688877456
C          -2.78973599960171    1.64938801800656   -2.69882694585933
C          -0.88016758784620    4.82308091665978   -8.88715024014842
C          -0.39540953294396    5.57898241190189   -9.88518951260203
C           0.99646322672257    5.59974067995298  -10.19553468894189
N           1.87745559857257    4.88352431120798   -9.50566812582067
C           3.07243900460393    5.13075011752558  -10.06817026390508
C           2.95195997083641    6.06621834788938  -11.20042105732790
C           4.27551708995714    6.32305972332559  -11.79563111149434
O           4.55845181424464    7.03272464803486  -12.73712095748988
C           5.16887683072511    5.49914536238876  -10.96329615811736
C           4.39747238458155    4.78688710397721   -9.92711715995981
N           5.21318657348130    4.02514845012994   -9.16032646477665
C           6.41839391204254    4.22100856478890   -9.64592188462058
C           6.46276318644104    5.12721896116068  -10.76988013451459
C           1.61828643022584    6.37238104528834  -11.29575554533619
C           0.91482916019479    7.21488156101255  -12.20849927354057
C           1.49598838666571    7.88891327833131  -13.21797316846351
C           0.73160810632880    8.72222434887045  -14.12401787100897
N          -0.59027319878859    8.82630478235222  -13.93610459201224
C          -1.25367109884154    9.59390646904596  -14.77917507490169
C          -0.63673602586880   10.26935011770756  -15.81971430909024
C           0.74761088696418   10.09951908546616  -15.94446040858896
N           1.41169259296997    9.32652734139985  -15.09049239945859
C           1.50063801148649   10.75761566939802  -17.00522875252367
C           2.81227963428274   10.61434421042477  -17.14962326927146
H          -1.55450991511116    2.89195149090216    4.24570929142796
H          -1.61558903148680    0.48813621726523    7.55111110184897
H          -2.17893135220984   -1.50330896998337    6.10141376759170
H          -2.59925419655222   -2.35341167437423    3.80054188506074
H          -2.45112938839788   -0.17547147657410    1.66689842881604
H          -4.06655348930119   -8.60205229953823   -0.21708228678017
H          -4.10391565692711   -7.33397228944972   -2.59890890448019
H          -2.72768339968775    0.01045795928297   -0.45984093487822
H          -3.17652090026292   -1.76844782648880   -2.91126797437292
H          -3.05411498081589   -0.87415735003123   -4.96693568998946
H          -3.31767260797853    0.62053543257880   -8.81584497680421
H          -1.25893753003232   -0.90097614474418   -8.86670266295958
H          -0.71443304496197   -0.03165292723719   -7.41237426326564
H          -1.03460565790763    1.05345660128340  -10.08674866354531
H           0.16108166562082    1.32663546637312   -8.99211454835723
H          -4.37313202012819   -0.94006272712931   -7.04097303794565
H          -2.74491600151682   -1.64926616855535   -6.89383725655421
H          -4.26497799793252   -1.51449443005906   -9.37583939290033
H          -3.81518598714740   -2.85068890044634   -8.54203097412201
H          -2.78905219646295    2.78167085246822   -9.33233505911588
H          -2.94273805222589    5.26094862902890   -9.24873564334861
H          -2.20610979667211    6.56244034277850   -7.25043197349296
H          -2.43036838335418    5.42089644968097   -5.07927051015345
H          -2.60180286384955    3.72644548698007   -3.10963646384607
H          -2.77564687749781    1.78773319731841   -1.62922676723222
H          -0.19939871095206    4.23408948831542   -8.29162048556841
H          -1.05303463543469    6.18281233343310  -10.49481352026995
H           7.26603611096946    3.72328625731250   -9.20734069694941
H           7.34543903456948    5.41640076105111  -11.30523711077970
H          -0.15481573891947    7.31383871722092  -12.08398854894990
H           2.55908394110313    7.84033891297980  -13.40418407895639
H          -2.32186082149133    9.66684447456939  -14.61008526755980
H          -1.19314441284525   10.89367826355287  -16.50021492285343
H           0.92047814809894   11.37687312576792  -17.67684495072661
H           3.36684850870955    9.99226926673789  -16.46801209753650
H           3.35735980654482   11.10442083793540  -17.93794459630912
