96
 SCF done       -202.295470666319          0.000253121278
C           2.26699259387401    4.16982757108148    4.73560907953755
C           2.84399980944940    3.08618752309560    4.14292428325216
C           3.29364617369859    2.12390945965980    5.10076633535028
C           3.06648953227573    2.48929062948016    6.38673614110841
S           2.29137707332144    4.02797862728829    6.44994379803267
C           3.81918762614360    0.94668094093064    4.40235700857084
O           4.23377414135500   -0.07534480107491    4.89564695288458
C           3.63581058901487    1.24581713438848    2.94665857986475
C           3.06453839884774    2.56757058314770    2.79757787766381
C           2.85570524278844    3.32905830697413    1.67136318860526
N           2.68119724262887    4.76731147219072    1.78196361710529
O           1.77336442583328    5.26157049063478    1.15812678121702
O           3.45198407737448    5.36417767636013    2.49992069230104
N           2.79823909176375    2.88718157090697    0.31805903830307
O           3.18014652743821    3.66134196132757   -0.53448856623447
O           2.37189986763671    1.76723045635618    0.09915951828928
C           3.91843054885313    0.33278834625706    1.95680761194370
C           4.77030429199932   -0.78446070765067    2.00001385734341
C           4.74022382670950   -1.78258571422789    1.03293538250694
C           5.76140446451535   -2.73150092811692    1.30834547394159
C           6.43437281370281   -2.22883878414151    2.50240765617607
C           5.87250543574244   -1.08147103482222    2.91786190613232
F           7.48856523559963   -2.84124456851745    3.05772443422223
C           6.09838143602809   -3.85624388922470    0.57892486454035
C           7.15780911792248   -4.76359328241500    0.80073450256427
C           7.19371941558466   -5.68929186558007   -0.23261417227699
C           6.08477089590000   -5.39048450714732   -1.14725099921322
C           5.44779333238819   -4.31838089361632   -0.65775218260635
F           4.37604004905195   -3.72734351946431   -1.18980203571434
C           8.16454350166813   -6.69151158539609   -0.39212270425373
C           8.27979217352419   -7.49969999511430   -1.49036823101861
C           9.30673974290136   -8.43831554520257   -1.69446339464913
N           9.42369558520781   -9.11570392393295   -2.89274157103843
C          10.53309732185253   -9.89517002933834   -2.84748001240291
C          11.32656974280701  -10.75814394210605   -3.57918255492264
C          12.39841309372986  -11.11865390098835   -2.73474939233787
N          12.24311572733145  -10.49590336617048   -1.51239148399846
C          11.12493885509213   -9.72727070803095   -1.55727261895428
C          10.36465198466943   -8.82180562673952   -0.84184063748029
C          13.49300397775315  -11.92864830315641   -3.08431654260307
C          14.51684737680858  -12.30404910363263   -2.25735661465467
C          15.65556809587872  -13.01599773600613   -2.67939787486678
C          16.03504924807101  -13.35984859763039   -3.96800585278411
C          17.30098498969627  -13.98782424035323   -3.92757706485362
C          17.66506425099483  -14.03924339776371   -2.50355273446692
C          16.70864419510417  -13.46431329846590   -1.76191441532303
F          18.80040507309793  -14.58191482401848   -2.05427251467027
C          18.07973170611876  -14.40578615906978   -4.98939350249219
C          19.38272796630186  -14.96987127687106   -4.95917644796100
C          19.82860478002791  -15.15019104653505   -6.25974315862526
C          18.76471191689522  -14.71897937609257   -7.17128314685232
C          17.74336839796247  -14.29590484196930   -6.41011158465020
F          16.57033009419577  -13.82289881430438   -6.84703011430943
C          21.09194185304747  -15.64962196806966   -6.62556256658798
C          21.57265255899421  -15.67295408077563   -7.90760875787808
C          22.82152751025652  -16.22065605351234   -8.23275558806968
C          23.38390096191360  -16.38171745588507   -9.47435880384575
C          22.85042400956019  -16.18701355502134  -10.80270630826414
C          21.53239959178837  -16.30654668255541  -11.17762881844882
N          21.03941197263865  -15.94917617054071  -12.47080623509919
O          20.09487866754650  -16.57211717049436  -12.90297353193492
O          21.60602705864458  -15.04591595519995  -13.05672967092753
N          20.53202960875365  -16.89230276503605  -10.31749443154953
O          19.43161861487488  -16.38616793222620  -10.32607864823880
O          20.86576635928394  -17.83320512497700   -9.63245203925661
C          23.99431251604487  -16.04051601749430  -11.68945149544036
C          24.25406165221166  -15.75459314797730  -12.99724377535853
S          25.93147585654836  -15.90052229500259  -13.34642035636831
C          26.30880275990576  -16.34911233784510  -11.72363002074472
C          25.18831002575524  -16.37407916558650  -10.96217178385132
C          24.85142898442862  -16.64040972985673   -9.55801216740583
O          25.58330169103036  -16.94516021153079   -8.64729769791198
H           1.82350826545481    5.04614649806732    4.30762702151132
H           3.29918693700686    1.96087582036060    7.28927005221472
H           3.41223970957787    0.45730089408244    1.00442784733090
H           4.04111752138383   -1.83728653471300    0.22069825982669
H           6.17377099520501   -0.48416632130247    3.75308107364389
H           7.84578441815872   -4.71990753262921    1.62193319612815
H           5.82992483837391   -5.93867362002867   -2.03209417563584
H           8.89136090822576   -6.78158955466298    0.40298294366921
H           7.56399770376555   -7.39448749279030   -2.29422595898398
H           8.80056322452507   -9.00389737386088   -3.67434145456465
H          11.19285725181555  -11.10330464654312   -4.58427207790656
H          12.88806703611445  -10.56682822372410   -0.74516201760065
H          10.52200001222105   -8.46615535473752    0.15553811523393
H          13.51131864718121  -12.25876978830262   -4.11219570911826
H          14.48282627749463  -12.04153361416400   -1.20753652900712
H          15.48627987574317  -13.15923637246156   -4.86577022597219
H          16.68870301692726  -13.34691531536490   -0.69585046603675
H          19.94216829177509  -15.18958854002964   -4.07067388060748
H          18.78441272896232  -14.78049880094441   -8.24159200544494
H          21.70766047927734  -16.05108228058857   -5.83048362853995
H          20.97745692326152  -15.21667922031184   -8.68366019206834
H          23.46568718584646  -16.50959788894707   -7.40863779863956
H          23.58436180334311  -15.43005380283629  -13.76850783180952
H          27.31957062062792  -16.56602172965231  -11.44193831451798
