98
 SCF done       -218.269218498582          0.000208727073
C          -3.82642034454494   -2.51088723025189    4.14318525317643
C          -2.56487919148535   -2.97266783239686    3.90396244176531
C          -2.35602445480341   -4.28446468379083    4.44722061074268
C          -3.44100084665461   -4.78064832366954    5.09139060708067
S          -4.74798857476491   -3.65685512868963    5.03227629425308
C          -0.99500661170744   -4.75284021658749    4.14921290141242
O          -0.50746669186771   -5.80801055852052    4.47356616237698
C          -0.40795846573157   -3.66145519547654    3.31454213490006
C          -1.31783720578329   -2.52155064101007    3.32074484266574
C          -0.96027106953948   -1.24641670626911    2.97522252370393
N          -1.86847170763868   -0.15116167654351    2.84337097791908
O          -1.42112914045733    0.96202985930719    3.00812111387792
O          -3.02666079571328   -0.40740287369530    2.57982817443398
N           0.43355190265697   -0.85522113045528    2.79722581181965
O           1.20474402136374   -1.18138167227636    3.66889553579006
O           0.70563012547738   -0.23602112738588    1.79883969117392
C           0.65844140072263   -3.74549502908508    2.45787766265331
C           1.68694268922867   -4.70281216153516    2.33129506380374
C           2.56339691486424   -4.69206444859248    1.25958197657233
C           3.51410249001454   -5.74449552271766    1.42107097883509
C           3.15998910158071   -6.38012656120990    2.68938935303396
C           2.08937760199181   -5.78311631735758    3.23696011114720
F           3.84188798351546   -7.41326643521037    3.19570236736730
C           4.52890644332720   -6.10387170125358    0.56340345550656
C           5.46707567513322   -7.16402519237232    0.69406889736115
C           6.27775347407718   -7.19360698313666   -0.42568126837942
C           5.86542309946150   -6.10052941270469   -1.31880861137446
C           4.84354368447511   -5.46990035260582   -0.72589588784316
F           4.17509876152525   -4.42065884057368   -1.20794150116854
C           7.29835296018068   -8.13013202620325   -0.68345389238466
C           8.01436023401991   -8.16877768116626   -1.84668794096953
C           8.99935086941659   -9.13999680175789   -2.12379462421095
O           9.30773084134345  -10.05884464421578   -1.19040461255350
C          10.23484316597574  -10.89890087606171   -1.69324318469818
C          10.55179620258104  -10.51412730903232   -3.01789853056707
C           9.76259660878728   -9.37794736073915   -3.28635458473624
C           9.72424060602484   -8.57532753074801   -4.54198338872925
F           8.89274020719869   -7.53061931961562   -4.49380015706894
F          10.92862386579955   -8.06402420164564   -4.86458859748468
F           9.33157062933969   -9.30191634643455   -5.60810336702122
O          11.44845364285203  -11.22839330048305   -3.69389952959222
C          11.82351117830390  -10.91155208686309   -5.02386520307797
C          10.78361932414040  -11.97574307936623   -0.98074318205779
C          10.53047127690698  -12.27067026817791    0.33035202075586
C          11.11056829720170  -13.35546175282333    1.01366426988286
C          11.00112814932430  -13.62324554870587    2.36837320406538
C          11.75499823704488  -14.78454766697127    2.67740973625503
C          12.31461734745194  -15.23169629300197    1.39324100331035
C          11.95468800149602  -14.39555397281489    0.41084385814665
F          13.07692794977828  -16.32077344788935    1.26235781578283
C          11.98003752788127  -15.36866023647874    3.90557528131764
C          12.76687892247570  -16.51765303735223    4.19743874739985
C          12.77113840154562  -16.72969068725237    5.56497043096049
C          11.95463517078769  -15.68457272291984    6.19200798733363
C          11.49376265032717  -14.89950583156172    5.20585147442568
F          10.70453089998379  -13.83025079689596    5.34120144612061
C          13.47094677590509  -17.76676011810728    6.21187656098600
C          13.53449057502647  -17.95385384360989    7.56467061006293
C          14.31004114686868  -18.97781724876380    8.13516547935438
C          14.62156635607298  -19.17871396628952    9.45342050848546
C          14.40823889050415  -18.36131199240843   10.62845822152821
C          14.33062853624541  -16.99071775646647   10.66028646278141
N          14.00629649593684  -16.24141215623771   11.83756260790445
O          14.52027477545603  -15.15336434439635   11.96512622257153
O          13.24391553703030  -16.75318237356268   12.63385617585826
N          14.66370040677261  -16.15989834688972    9.52549040240252
O          13.98210284095440  -15.17619164418956    9.34681752067576
O          15.58521468389224  -16.51339581027707    8.82426048740161
C          14.50793593867754  -19.25398909127924   11.77276440265765
C          14.33314519909858  -19.21981842897288   13.12508620507691
S          14.78562482627749  -20.71124670580234   13.85050404868944
C          15.21673152068211  -21.40787056661682   12.33265882809834
C          15.00976903025563  -20.52473800067202   11.32556904087852
C          15.14650447468301  -20.51541681846570    9.86422248522146
O          15.53743795476575  -21.39154180214431    9.13192546957124
H          -4.28306502773520   -1.59416880419393    3.82763641668159
H          -3.55453185447696   -5.72079413641577    5.59280732935233
H           0.72759722074398   -2.96858553949388    1.70212343294766
H           2.53319832963872   -4.01020833815461    0.43161610686106
H           1.60028460932698   -6.03298523278548    4.15584406653582
H           5.52037722861609   -7.83732423736432    1.52707024167918
H           6.30831266194006   -5.85639223038434   -2.26345816151152
H           7.49514195392105   -8.86768229804584    0.08258659515668
H           7.81299590576793   -7.44130621760259   -2.61293532855388
H          12.54391031032104  -11.67928910723309   -5.30053114973750
H          12.30182144007474   -9.93269267628442   -5.08345430033825
H          10.97166308191573  -10.95690780173862   -5.70406709989892
H          11.47431155655303  -12.57348531894200   -1.55534698640213
H           9.86754136737874  -11.62777639470010    0.89323598812870
H          10.45392164583092  -13.03730431699038    3.08055950801700
H          12.21469255765461  -14.47317301436658   -0.62562669465912
H          13.27973658736121  -17.11802370605237    3.47172072585932
H          11.78231420172730  -15.56247251430778    7.24262094620348
H          14.04105552705363  -18.43008016740267    5.57334728027935
H          12.96607267302012  -17.30042214297805    8.21003832803777
H          14.68247613181282  -19.74608907662924    7.46507816385441
H          13.93372967388452  -18.43733663370331   13.73917573753407
H          15.59304281582318  -22.40985015671027   12.28224295832792
