107
 SCF done       -197.512365097508          0.000515520848
C          18.20586567653175  -14.27605224285504    9.99694829198634
C          17.69766789012721  -15.29664441604123    9.24080036611289
F          18.24113768296175  -16.52327483134948    9.33277414777855
C          16.61593977358445  -15.12984797018736    8.35381273295084
F          16.21610041559250  -16.22047338776628    7.66969852227573
C          15.96462576582784  -13.91994010872395    8.16067706054167
C          16.48113233739415  -12.85304306144419    8.94041009274909
C          17.57923279852425  -13.03507160318373    9.83800986734726
N          17.82308756819452  -11.85016508458247   10.41784822860853
N          16.93686295672857  -11.04842469129692    9.89706664189697
N          16.11632431382503  -11.56512722376171    9.02333313912763
C          16.86804143688221   -9.66869001153428   10.26935394231185
C          14.86687671217610  -13.73434950250896    7.25688642663177
S          14.21594490401199  -15.03339898109440    6.29702654905747
C          13.04545280644046  -13.97252652019873    5.57973859119501
C          13.17074066972491  -12.68969158325368    6.07227577483197
C          14.19003962525777  -12.55751203193800    7.01204228241689
C          12.11863595770349  -14.44906243685966    4.61501045269978
C          11.96313094365387  -15.73155869648963    4.13727199835274
C          10.95053486990710  -15.85195337216740    3.18535234846853
C          10.31020183455977  -14.66281904030072    2.91138573998232
S          10.97986366220933  -13.36502398598551    3.86224174809863
C           9.25043211918476  -14.41795715585580    2.00069619961913
S           8.54224992550425  -15.70288505402704    1.06533107445435
C           7.43527251200774  -14.59878908134076    0.28990521664765
C           7.63243241159022  -13.31359875108213    0.75749288288346
C           8.64220976903618  -13.21395256988414    1.71080740216841
C           6.51454853976484  -15.09058239813404   -0.67283838823043
C           5.64588541368116  -14.31331883371483   -1.36466837905430
C           4.71883019241680  -14.77375682082129   -2.33296820738668
S           3.72728711274854  -13.58094914486499   -3.15879065415823
C           2.97194178039110  -14.81991141602878   -4.06994045086279
C           3.45615311250113  -16.08835417078326   -3.74941900328624
C           4.44117015067341  -16.06042541625038   -2.77193533548895
C           2.75962309853810  -17.14700645532677   -4.57489503852668
C           3.75166431795637  -17.89985798348959   -5.46547812068870
C           1.98134020960445  -18.12185188851306   -3.68725999941215
C           1.82671157820673  -16.28775819526245   -5.39868001012765
C           1.98532717098884  -14.94064633089874   -5.07279962019566
S           0.95797797480746  -13.91997780416183   -5.98847213851366
C           0.29607469409458  -15.31520481271629   -6.82674188546968
C           0.87332922004296  -16.49725766765773   -6.38534065549074
C          -0.69689468534759  -15.09024981491491   -7.81273221361294
C          -1.33519482025736  -16.05210007920254   -8.52317837760859
C          -2.32111368768428  -15.79351687813472   -9.51182082211262
S          -3.12047677641613  -17.12544406350378  -10.30327983942548
C          -4.08237148387005  -16.04776180046045  -11.27042749372802
C          -3.77720004408243  -14.73224224190708  -10.97816360630739
C          -2.79844309725433  -14.59132937326163   -9.99878624915315
C          -5.03416757134447  -16.53003640252171  -12.20794933747268
C          -5.83029236932596  -15.79131815590172  -13.06026537420982
C          -6.66788033570639  -16.57246691523004  -13.85417858339570
C          -6.53562564143578  -17.92592054826232  -13.62868954117198
S          -5.33772104216016  -18.23325851554625  -12.40202427494055
C          -7.23783117011118  -18.98987437307816  -14.25206193739223
S          -8.41800271776282  -18.68095257543264  -15.48929902592621
C          -8.76000587032106  -20.38188909276385  -15.65930055757443
C          -7.98023119454555  -21.11987656021256  -14.79121078229149
C          -7.12960810540292  -20.34390222227206  -14.00711146482618
C          -9.73867954247877  -20.79903096837590  -16.60530081727601
C         -10.13081400790426  -22.08018305143097  -16.77514008154381
C         -11.11440831297530  -22.56921036581543  -17.70142698325441
C         -11.80594335103276  -21.84939079193376  -18.66562450631341
F         -11.58812367066223  -20.52923185533233  -18.82894004128179
C         -12.75796397936458  -22.43424332082405  -19.52612370653381
F         -13.35914179168635  -21.62728337929348  -20.42014310392051
C         -13.09256905049008  -23.76134293397024  -19.49324680106663
C         -12.42078155596648  -24.53049140967143  -18.53678562180247
C         -11.45309099977310  -23.94531888259692  -17.66490406586442
N         -10.99100132532304  -24.92304894397398  -16.87188360251417
N         -11.64186154004557  -25.98643495351671  -17.25745205271640
N         -12.49856277096374  -25.83453730529689  -18.23013189303895
C         -11.42608613061772  -27.25737267769115  -16.63694005502833
H          19.03306937531231  -14.42056335299685   10.66898007660875
H          17.66229466306013   -9.47653200480971   10.98637112434506
H          15.89725332448644   -9.45268360094405   10.71680459566398
H          16.99508125657123   -9.04038881372816    9.38738225044499
H          12.53480975873282  -11.88331150958513    5.75116996507317
H          14.44434044186530  -11.64087574936142    7.51060152216728
H          12.57310902126090  -16.54970802971357    4.47747734454925
H          10.68316842786535  -16.77402972202195    2.70016521122927
H           7.05784014344102  -12.47110878885059    0.41830472579531
H           8.93673458078335  -12.29472270803891    2.18644798410463
H           6.53715440583817  -16.15678276061659   -0.84797426921964
H           5.64108083847637  -13.24622022418280   -1.19104383934723
H           4.94285844523843  -16.92765863473954   -2.38352857673551
H           4.46151197961522  -18.45010684683655   -4.85266331771687
H           4.30065208926151  -17.20143837620363   -6.09311150773636
H           3.22190788819836  -18.60130998819280   -6.10537513540911
H           2.66630107257957  -18.67524088853893   -3.04945101988746
H           1.42691943510314  -18.82644791968236   -4.30238745906133
H           1.27876567561185  -17.58052865193374   -3.05760004432413
H           0.60188160116086  -17.45906294089157   -6.78010364526244
H          -0.94747770241544  -14.05331138124836   -7.98793548581112
H          -1.10505793589974  -17.09285477854007   -8.34499308153908
H          -4.25649643455852  -13.90119780073241  -11.46287147200398
H          -2.44357583035350  -13.63671399813793   -9.65557188582069
H          -5.80172030551827  -14.71797065704511  -13.10444154651677
H          -7.35854637001173  -16.17449333085150  -14.57675436574484
H          -8.02481540757772  -22.19201621706753  -14.73122810480152
H          -6.44877441245481  -20.74153741760345  -13.27482920117388
H         -10.17404103776991  -20.00589524161410  -17.19438039944312
H          -9.69886021540095  -22.85877960486662  -16.16252729679071
H         -13.82446484670133  -24.17958896783333  -20.16152426547436
H         -10.66357555452272  -27.13240355714612  -15.87210716484752
H         -11.09860990159976  -27.98206393659383  -17.38265980692221
H         -12.35444173275780  -27.61275841251623  -16.18875892984123
