102
 SCF done       -189.842714611981          0.000625611911
C          -8.34071842275291  -10.99232717328015   -6.71830556769116
C          -9.14154667608765  -11.26573499069155   -7.78728176121017
S          -8.28167994834648  -11.45819114182674   -9.27327565223362
C          -6.80563379992928  -11.14789684221364   -8.46130111694468
C          -6.99134977922407  -10.92389434181640   -7.10440987852741
C          -5.68044487120971  -10.69834930031853   -6.47711573872824
O          -5.42104439899743  -10.51550751964113   -5.30988255298194
C          -4.71003362993563  -10.69826302266947   -7.61521349574309
C          -5.40748276655090  -11.13464562623811   -8.80916665541674
C          -4.89088969220442  -11.66760922003971   -9.96522048906778
C          -5.73693169608486  -12.09708817488325  -11.00688428635647
N          -6.41999720254758  -12.43062624180079  -11.86704927523513
C          -3.52609651131950  -11.92316763243881  -10.18680286501631
N          -2.43009169426339  -12.19397634535420  -10.39608067393162
C          -3.44360839917886  -10.24166200534351   -7.40088914185452
C          -2.48573248542020   -9.77810910933684   -8.32597951456559
S          -0.81741982457104   -9.63475813553182   -7.83449057511841
C          -0.36704059541091   -8.96147454336071   -9.36409696388553
C          -1.47475067909920   -8.82709191612505  -10.18875577069937
C          -2.64809277997410   -9.28916766227107   -9.61423446502094
C           0.97611556558685   -8.61943577677690   -9.66108306447640
C           1.47971575864159   -8.08656475656640  -10.83312843352803
C           2.85278811367897   -7.86643670412247  -10.79706089717552
C           3.43745093420999   -8.22751730787675   -9.59832533138253
S           2.24817178514995   -8.85145065976062   -8.49330932402445
C           4.80314945147628   -8.14499069045103   -9.23151195008298
S           5.99362978163779   -7.48994616317521  -10.32014435931053
C           7.27408254498584   -7.76450937083002   -9.16910154315857
C           6.76836591201627   -8.33147699552877   -8.01300277682846
C           5.39357722032208   -8.54115463618069   -8.04772318680926
C           8.60368448640003   -7.40506257944905   -9.51017686921924
C           9.69128627918007   -7.62938080959192   -8.73217602046525
C          11.01999321279572   -7.26395942726221   -9.06636844282841
N          12.06839943058505   -7.57660282617844   -8.22161887253165
C          13.22187552734159   -7.11253922001174   -8.76848524203178
C          14.59680223382391   -7.01480933613296   -8.58045079928775
C          15.09213106600034   -6.32334777660760   -9.69230351839687
N          14.04363332189725   -6.01009455138713  -10.53690709098494
C          12.89130635843282   -6.48288896977892   -9.99493443893155
C          11.51608387237815   -6.57943154315962  -10.18213341136758
C          16.41738559336594   -5.93316657694157  -10.01132576859021
C          17.51131026410437   -6.21091555531093   -9.25968197676639
C          18.83410064758737   -5.80017299138708   -9.56674895946924
S          20.13775824781869   -6.26089462541857   -8.50452615059825
C          21.30497415114802   -5.42129675895306   -9.48655489242135
C          20.68983396601211   -4.82884433725021  -10.57160398718467
C          19.31563601910265   -5.04053236663960  -10.61776171250884
C          22.67697720712254   -5.39619626701235   -9.13586766012042
C          23.29605226291070   -6.01054077815245   -8.06508718096189
C          24.66597610520384   -5.77332828214608   -8.00546846099650
C          25.13109964394794   -4.96930578509011   -9.02678327664850
S          23.82814432648966   -4.50429565467107  -10.09013056379581
C          26.45240699268239   -4.51655933843480   -9.25471415317744
S          27.75777676448044   -4.97741159626556   -8.20843828626464
C          28.89717194460826   -4.02352672169849   -9.12836347808337
C          28.25806989781922   -3.40080302293434  -10.19090508711579
C          26.90103738077122   -3.67695503784504  -10.26224398322189
C          30.24980325772644   -3.96866777314611   -8.73211609294072
C          31.20637390507047   -3.20551675255715   -9.33366845214146
C          32.53668749056732   -3.18646124980471   -8.87266324590221
C          33.53493633067753   -2.41031573788020   -9.39521920868708
C          34.91119721990398   -2.36238446186829   -8.93177468120349
C          35.51758164799305   -3.07971309884621   -7.92960296755967
C          36.88242533768285   -2.88662635942660   -7.63327482902890
N          37.99332479254690   -2.73481041796418   -7.38763262875123
C          34.89984344853699   -4.04653680746371   -7.11614370821118
N          34.45739820794715   -4.84528380502472   -6.41882993982257
C          35.57365993816390   -1.38247207415196   -9.75039059658358
C          34.70789214933038   -0.83500289813303  -10.68480326359837
C          35.32063185671815    0.13096631710833  -11.50034541604292
C          36.63243427261490    0.29219110251095  -11.16439346615328
S          37.14984766849689   -0.71830930538988   -9.86218384811480
C          33.38033289839846   -1.44985866848686  -10.52399262244866
O          32.38227629381952   -1.21882737217061  -11.17466268603780
H          -8.69523093466253  -10.85152789444318   -5.71415866827117
H         -10.20828999498758  -11.37658584433507   -7.79554356952770
H          -3.16817637358688  -10.15985667958768   -6.35351016350460
H          -1.41990998906814   -8.41164368912026  -11.17796661610282
H          -3.60723952295115   -9.22409478112188  -10.09679818898766
H           0.86503664621903   -7.86828916756687  -11.68705196686389
H           3.42197068022396   -7.45895024022597  -11.61377997962339
H           7.38071501842452   -8.58111684582243   -7.16581523325867
H           4.82578870309090   -8.97133567822854   -7.24115231995276
H           8.73165176768259   -6.92531497712407  -10.46959394927150
H           9.56442374307491   -8.12713258197173   -7.77973362871590
H          11.97121774397157   -8.07472615726632   -7.35380501878310
H          15.17766048496677   -7.38214694040371   -7.75926785836376
H          14.14114035438773   -5.51451239382371  -11.40613352491182
H          10.93440153933597   -6.20872247142821  -11.00122777416716
H          16.53603747560663   -5.36973499548409  -10.92751488609672
H          17.39455399497673   -6.78405552902040   -8.35151031480428
H          21.23983187294206   -4.26028786309646  -11.30121209062410
H          18.68526129122205   -4.64726119760944  -11.39424875152134
H          22.75357347998620   -6.60999525438888   -7.35574078481621
H          25.31559748022684   -6.16610674440280   -7.24328345026875
H          28.77454144071936   -2.76744342591192  -10.88873615851674
H          26.23962322526830   -3.28500239696759  -11.01487985784571
H          30.52607123260951   -4.57421696018182   -7.87717454426301
H          30.95707489666483   -2.58249504577281  -10.17783970533442
H          32.77060760647285   -3.83112797608798   -8.03406925247838
H          34.82325329341028    0.67291074583206  -12.28324748252685
H          37.34553770992779    0.95780908993467  -11.61036901503130
