110
 SCF done       -200.570842515665          0.000658562861
C           1.43487457456579  -10.46016620687791    1.16525376273228
C           2.00508334676851  -10.64975649837901    2.38864961913935
S           2.72822373633116   -9.22744663021196    3.05325226939298
C           2.27651934305424   -8.34296269460909    1.66047534683919
C           1.58867177882889   -9.12913502725782    0.73964740079963
C           1.21387697511752   -8.30434017315259   -0.41043576787222
O           0.56448834398959   -8.59345191178857   -1.38714455907438
C           1.87409760606266   -6.97851267730210   -0.14653022772835
C           2.37002289537186   -6.97542124202752    1.22629642179740
C           2.67261097654081   -5.90813240882047    2.02490318090760
C           3.08767194099568   -6.10254456606263    3.35975596095409
N           3.42146644126592   -6.26787259544449    4.44453890937044
C           2.48271282758200   -4.55718491735292    1.66871561139039
N           2.23857363123052   -3.45107751221929    1.48290954657642
C           2.04976510912184   -6.10363133190776   -1.16288619914701
C           2.94258278690423   -4.99281845429359   -1.19492530116908
N           3.98418199030683   -4.91852703872731   -0.38052541584996
C           4.63939066999511   -3.78969119594928   -0.72420518227305
C           3.97266657901663   -3.10071280094472   -1.83118875340805
C           4.69060616755459   -1.86185961230804   -2.16539477569052
O           4.44206944758525   -1.04848824999468   -3.03135315674488
C           5.79820254746123   -1.85280567809715   -1.18936169656685
C           5.73595609425968   -3.05651318209087   -0.33623100698252
N           6.74585737708205   -3.05869225132079    0.56678615972241
C           7.40785692444656   -1.94983362681273    0.34073765475839
C           6.86758440399075   -1.14767877192821   -0.74091090039105
C           2.87287320797926   -3.86640020939390   -2.14901814246711
C           1.84546796118549   -3.67708938665162   -3.11386648495311
C           1.84772194201432   -2.63352575977774   -3.97623224444880
C           0.87008764287170   -2.34094206239853   -4.98554215776685
C           1.10950168891782   -1.26864037905597   -5.82734219828085
C           0.19503251823315   -0.94371502652113   -6.84059673164655
C           0.21558919379885    0.06583255070448   -7.80136263127003
C           1.27712027903890    1.09412751666456   -7.96947083695462
C           1.93442478928204    1.02067361810431   -9.36429575045528
N           3.28372408268737    1.52980925014867   -9.27278479828671
C           0.73088533246536    2.50258079649507   -7.66736832948252
N           1.81735223604800    3.46927577891535   -7.63114527823496
C          -0.98587836950157   -0.08498732243485   -8.58760456474975
C          -1.44717492172521    0.58758967166712   -9.65899930607386
C          -2.73628499425795    0.22107033622962  -10.31617763144691
C          -3.46802307243891   -0.90846698799896   -9.67559774553838
C          -2.98143047057943   -1.58909787010754   -8.61895379684026
C          -1.74315610910799   -1.22399332709638   -8.04536582126089
C          -1.01337788308742   -1.73854488118953   -6.98824956418668
C          -1.24255626647766   -2.82192738081682   -6.11147360207122
C          -0.32817562546457   -3.10976600537963   -5.14846688061248
C          -3.56223691660116    1.47704740726233  -10.43382536272045
C          -4.58051800876214    1.77023509145483   -9.61894662163462
C          -5.36204371193046    2.96962279124623   -9.69392909945318
N          -5.91445709850533    3.48109000201723   -8.60865425771870
C          -6.51386650374187    4.62511992333335   -8.99847432905472
C          -6.33056858816910    4.85703005175108  -10.43912726656703
C          -7.04607403253477    6.07586571619285  -10.86648635093578
O          -7.14880957182554    6.53891858047112  -11.97901409765292
C          -7.62343717027346    6.56237324420318   -9.59980477455797
C          -7.27570463629711    5.64920986717082   -8.48822202194280
N          -7.82599184902105    6.07789644164897   -7.32795315412687
C          -8.48317224215400    7.16892327538547   -7.64283247667932
C          -8.40561000313246    7.52369263040081   -9.04505141564345
C          -5.61331545433114    3.78473139682082  -10.90595959635089
C          -5.24529976007162    3.43745930033239  -12.23767599940351
C          -5.09074560607932    4.32918295255794  -13.24651810768194
C          -4.72859695807856    3.88809721674219  -14.54596965887463
C          -4.41113651984233    4.69185079763342  -15.59499992669713
C          -4.10360358536885    4.24755895810879  -16.94995907772501
C          -3.89000617589302    2.97186330763604  -17.40762114374459
C          -3.60720921728359    2.73125529307119  -18.76884138957558
N          -3.37968495978876    2.52898361260835  -19.87500648103972
C          -3.87898996109572    1.81135926682180  -16.61232991399964
N          -3.83007954055241    0.83690459714019  -16.00557495311838
C          -4.01875426608742    5.43857636564668  -17.74602216219068
C          -4.17180062340248    6.58120108776674  -16.97124488361823
C          -4.06832943233070    7.76571252807481  -17.71771750321131
C          -3.84392736907224    7.49429715665766  -19.03583725733456
S          -3.74483496858923    5.80915612647988  -19.39751757647596
C          -4.37050281808186    6.18878406697671  -15.56662517101157
O          -4.43898452167881    6.90868481900587  -14.59893365001807
H           0.93244588147034  -11.22526283857313    0.60310155498722
H           2.03909191363344  -11.55694702970666    2.95984776966598
H           1.51031743136690   -6.33045159903778   -2.07614509668039
H           8.27323354601464   -1.70406184121624    0.93137849630116
H           7.26195104520721   -0.20932876867412   -1.07766872964018
H           1.05332082897594   -4.41225176572662   -3.12735297988978
H           2.67326412176257   -1.93548956707110   -3.92024383428219
H           2.01273449358196   -0.68971174695823   -5.70327553625112
H           2.07584040396296    0.88844416206276   -7.25056440364181
H           1.30872987777494    1.56386714362594  -10.09132539400005
H           1.98602535468608   -0.02678074863988   -9.68111082624085
H           3.25373870260699    2.49889824199038   -8.96986570706126
H           3.76105408850502    1.47125030947048  -10.16412223205705
H           0.16075637986433    2.45539395342713   -6.72378528064963
H           0.03781071057003    2.81130858777367   -8.45474452588509
H           2.43704232267708    3.26222518106710   -6.85347898341532
H           1.45009702156916    4.40448341211026   -7.49031412666664
H          -0.91521663523376    1.42425904112587  -10.08701710401619
H          -2.49391987765553   -0.08365834528557  -11.34857696213886
H          -4.41593289137075   -1.16925705144389  -10.12073410140547
H          -3.53113816397317   -2.41715173720262   -8.19654008105591
H          -2.14096498519093   -3.41202536925832   -6.21580979214013
H          -0.50731808747544   -3.93606647079537   -4.47896720513667
H          -3.23740875826954    2.17841080584081  -11.18998253500615
H          -4.82399988079212    1.11148166018732   -8.79544809327790
H          -9.01658174221497    7.71798584583407   -6.88623752076608
H          -8.87629888383096    8.37184303557732   -9.50132107556835
H          -5.08031433769191    2.38371494688185  -12.43356954743845
H          -5.22355670571869    5.38730045058618  -13.07522937643656
H          -4.72005125130733    2.81497822795628  -14.69984384305282
H          -4.15520816737808    8.75442637802344  -17.30715371869480
H          -3.72302936383032    8.19765396013565  -19.83661793179736
