120
 SCF done       -211.690838594055          0.000983281310
C          20.62722829673695   14.65340270829698    4.32508826964621
C          21.86846098772303   15.06696381094106    3.92358119226242
C          22.64903143490803   14.25624111994561    3.08588662657612
C          22.17832348376759   13.04363855773885    2.66137645567497
C          20.90531991010743   12.58561831527682    3.05743473549272
C          20.41852311082672   11.32914426774323    2.63003631994666
C          19.17889886363071   10.91491815589650    3.03729694895211
C          18.38187731534455   11.75211416962014    3.87375300886790
C          18.83058385002127   12.96737135590861    4.30493765561107
C          20.11182993859804   13.41081094436790    3.90649831971042
C          17.08844655229806   11.09503103800118    4.13810554970588
O          16.18370477358595   11.47679405485096    4.84264360802664
C          17.09833598824300    9.87218361131198    3.28311674907426
C          18.44760103484563    9.67908048079893    2.78833442699649
C          18.98901484524631    8.48825896721655    2.38148989731267
C          18.29794130537011    7.25895573807502    2.43620997096431
N          17.80221313657754    6.22866222470109    2.53948787268542
C          20.32901689894470    8.34119203746626    1.96831011426870
N          21.40829942676078    8.18478117394050    1.61101848254916
C          15.94839211809713    9.21503638786281    2.99057136656416
C          15.74490551454736    8.30772993732764    1.91614653242959
C          16.39546711379485    8.35482448014542    0.59974916778714
N          15.99057758121745    7.43715365573154   -0.22802095754053
C          15.07939869748970    6.69628472300331    0.46219256326012
C          14.88140359248823    7.24211837636061    1.80549684884006
C          13.91357356270258    6.45253674804640    2.52789315523290
S          13.38294751751498    6.77570555495328    4.05114848898617
C          13.53058942211971    5.41310617262751    1.60868856899537
C          14.26436409652622    5.59767119728636    0.34212977547567
N          13.92122357121014    4.64315455409806   -0.56310776587891
C          13.02255422143668    3.91249904745726    0.03026274019193
C          12.70394540041035    4.32248167845254    1.40168165764874
C          11.76715951895871    3.63235740037453    2.24231694878927
C          11.82300049686324    3.74885782310309    3.62265674860385
C          10.95295110854150    3.00089145791934    4.42928943786136
C          10.82247650927401    2.89811161632036    5.82015654656373
C          11.55921721497238    3.61056050794657    6.88329200208482
C          13.05654075131281    3.14791851609851    6.90808515353024
N          13.78658970463563    3.59180950095177    8.05601432759090
C          11.47791621312551    5.14480257410690    6.75074001482372
N          11.94971210214870    5.77274828146125    7.97494160547076
C           9.81383550876184    1.89174475678402    6.06948662410627
C           9.35856511475691    1.35491142154290    7.21847778803254
C           8.32085582987962    0.28629367479489    7.21918934060182
C           7.81317056212255   -0.09268264586183    5.86921444716038
C           8.28892978947536    0.44251515991459    4.72863354068299
C           9.30135333753704    1.42857549537500    4.77748452641524
C           9.99724395722801    2.10735388900054    3.79323849540957
C           9.92411428114829    2.04480348899942    2.38580350217163
C          10.78360320088149    2.78430072903999    1.63906028245689
C           7.22133862782881    0.68445420980035    8.17460015646871
C           6.05852185701496    1.21508364685781    7.78471793092637
C           4.99715346311822    1.56196325454148    8.68094483470610
C           3.81799073922166    2.32220324304490    8.27281421268498
N           2.94058584237286    2.51523279955210    9.21897131741036
C           3.45469812137955    1.90372992873530   10.31709274198811
C           4.77251800622486    1.30114610549378   10.01633774719982
C           5.26427701722615    0.62104946724583   11.18681175982834
S           6.59436460341013   -0.34141542678001   11.34936268448818
C           4.26116664918135    0.85279552286501   12.19038799050580
C           3.13927830248659    1.61461600517188   11.62160182331162
N           2.13488162274902    1.73858388964893   12.53088556597878
C           2.53392031271832    1.08762128461309   13.58795731670495
C           3.86929062105594    0.50389307300389   13.46503544857388
C           4.52978539721522   -0.31713820473344   14.42272896094156
C           5.87896453143851   -0.36314637224705   14.56406902205687
C           6.67250697814362   -1.35263903459919   15.27274894544704
C           6.20129044744074   -2.38168968937223   16.04469485081196
C           7.02376257248451   -3.32890645479880   16.69081883607732
N           7.63413510481198   -4.12818570658752   17.24427567522756
C           4.84111525429770   -2.62806076732117   16.32522833607090
N           3.75530162613483   -2.88490922387659   16.59653066407545
C           8.07498804451717   -1.07503564184095   14.98664796462567
C           8.16354701209629    0.12438140670329   14.22380459454178
C           9.36191231226521    0.63131604834004   13.81283132032866
C          10.55071288996481   -0.05643026797811   14.14176853703756
C          11.81668302166544    0.41546409126828   13.74207294744414
C          12.95583361367942   -0.26269171303596   14.08054775626868
C          12.87922011773776   -1.44509972642293   14.83229859203959
C          11.66565439234896   -1.93215892868260   15.23406686080937
C          10.47181926681888   -1.25792003149186   14.90376199576657
C           9.21710993596398   -1.75538739297833   15.32120607063022
C           6.81227656047775    0.67230298234074   14.01644516120780
O           6.52396390055746    1.78852288072051   13.64350106714661
H          20.02166821056256   15.27388816532833    4.96945989694314
H          22.25532149093968   16.02118704089425    4.24860783246167
H          23.62642601025356   14.59716614633467    2.77912451229981
H          22.77676884379015   12.41419574212077    2.01928252894941
H          21.03470799661975   10.72677625204006    1.98065618537808
H          18.21629455488042   13.58348304201988    4.94466749093982
H          15.08368411027999    9.45284939066956    3.60267942406297
H          17.10741261872327    9.09918645777761    0.28716267036897
H          12.61288186683383    3.05756639382702   -0.47830115123778
H          12.56523528072818    4.39079118200384    4.06671173133694
H          11.12466171395956    3.34263014273524    7.85385297181599
H          13.55508297871262    3.53252701001943    6.01690827663408
H          13.08243226046681    2.05489626211577    6.87505488440773
H          13.72777442081617    4.60279960995245    8.14080489907330
H          13.43523675620465    3.17544134329396    8.91037401732123
H          10.44101279105323    5.41805750745726    6.50006176057655
H          12.11942705221661    5.48376549788400    5.93844884691574
H          11.25535726004504    5.70198025985395    8.71177720710067
H          12.14396261438846    6.75425773428500    7.81776509842460
H           9.72029124194710    1.66821107232585    8.18822581713705
H           8.78797290765982   -0.60963956757542    7.66226599912498
H           7.03955222795391   -0.84527863215327    5.85442070173120
H           7.90866645723047    0.12673571736207    3.76841970563754
H           9.18867591092776    1.40835900390488    1.91685994597566
H          10.71959606865201    2.75125325177812    0.56311854274095
H           7.42413822050505    0.52900554120582    9.22392196941505
H           5.87123534754164    1.40588904488941    6.73500347526571
H           3.65302918649110    2.71562767738482    7.28434977121346
H           1.91503558113906    1.03005614493951   14.46645166585125
H           3.89194787293783   -0.96003639469231   15.01587131278164
H           9.40070084561225    1.54549530669912   13.23914597356900
H          11.87012884203933    1.32816007042314   13.16617861392676
H          13.92216588499456    0.10820819760536   13.77263403007026
H          13.78778429705783   -1.96711811616871   15.09224426368561
H          11.60138729094354   -2.84129917546701   15.81373248223656
H           9.19144545257224   -2.66651846576955   15.89753727729931
