70
 SCF done       -128.735424563738          0.000419528422
C          -1.62289443748472   -0.38075804686927    2.19472846258224
C          -2.34886500084359   -0.23683922334674    1.01787691863019
N          -2.21384856874432   -1.08278610981284    0.01404262883853
C          -1.31423666926462   -2.06025559528785    0.13708924417471
C          -0.51267878736186   -2.13195980396977    1.29284106517938
N          -0.69080942532510   -1.31584806498029    2.30874802985575
C          -1.16390324718849   -3.06764305961286   -0.89211501042122
N          -0.55706458244027   -4.18884951959464   -0.54998730615476
C          -0.62190365849914   -5.00300308988895   -1.63020132770136
C          -1.33431119025332   -4.35164129411133   -2.72215671632664
C          -1.41012254750141   -5.22975416527100   -3.89851385287852
O          -1.93108999597114   -5.01526079887309   -4.97092163705495
C          -0.68376922542909   -6.43432121868384   -3.43939643052849
C          -0.22324943058028   -6.25177566946923   -2.04546800193028
N           0.47024732840863   -7.33746553544179   -1.62408861074453
C           0.47705541118466   -8.15703589993086   -2.64646752700081
C          -0.21607888610641   -7.65052372954610   -3.81683155775715
C          -1.65540328099700   -3.08281965910795   -2.29089058312163
C          -2.29074441701645   -2.10577928510253   -3.10287633606061
C          -2.34069947398757   -0.76861279793005   -2.89306430262411
C          -2.96567701724640    0.15067294837845   -3.77255140884102
N          -2.89574267303056    1.50761261589789   -3.53289651498314
C          -3.57469252225020    2.15857693953478   -4.51341306954709
C          -3.95065671361859    3.40629626323242   -4.97618919825644
C          -4.71276574070767    3.17781573093971   -6.14144706883767
N          -4.78785221656323    1.81650686506038   -6.37157058150721
C          -4.09939319856956    1.17137570316124   -5.39991452405941
C          -3.71439385111691   -0.07943569200125   -4.93738503591911
C          -5.35068520583595    4.09528193363050   -6.99182952976910
C          -5.29503776700703    5.45680500320283   -6.87746612367581
C          -5.99320925704881    6.29657578529623   -7.76449885739846
N          -6.78419043114581    5.81027447258068   -8.72853407973533
C          -7.29536038804417    6.87236269417612   -9.35587454622900
C          -6.80565482861551    8.13627446844023   -8.77353739550759
C          -7.38580529485324    9.28914094794099   -9.48615742196221
O          -7.20299249415965   10.47215794964485   -9.27864927924995
C          -8.23310183461665    8.64956622869396  -10.50011688525178
C          -8.15353034774655    7.18185749165228  -10.39185491385117
N          -8.93081298988241    6.58889343056516  -11.32404886715225
C          -9.47869944310641    7.58137630973054  -11.99416072512854
C          -9.08721066499600    8.88925444737922  -11.53437918034885
C          -5.96522200836651    7.77955385557433   -7.75195606411168
C          -5.19907291783721    8.58351766873242   -6.85585704988909
C          -5.18795513152533    9.93054041203683   -6.88326987825319
C          -4.39425778341646   10.71761580524850   -5.97057489562539
C          -4.40167908542033   12.12245341956986   -6.02702284541672
N          -3.68517486368007   12.85895539973395   -5.20378048651781
C          -2.94158144670891   12.22983902759188   -4.30493652137808
C          -2.92171494293705   10.84118258808072   -4.23866541705362
N          -3.63725094436608   10.09709912627818   -5.05770455446353
H          -1.78332438623349    0.25253613151213    3.05538261841481
H          -3.07771858150928    0.55093902157825    0.88217207998002
H           0.27023946681605   -2.87089400061778    1.37266642028875
H           0.96514637348105   -9.11335490894724   -2.57314684583137
H          -0.31551213414223   -8.16424238820133   -4.75257671799323
H          -2.70503353257228   -2.50994151774151   -4.01719155057445
H          -1.88345438824615   -0.35076931392628   -2.00826145248600
H          -2.41070118836658    1.92242002973755   -2.75587390163792
H          -3.72994751976217    4.36473316455197   -4.55278223453978
H          -5.27234792645832    1.40036025466022   -7.14877699494336
H          -3.93436048002322   -1.03719099514584   -5.36170321118137
H          -5.93874936987702    3.70087674544767   -7.81023511408700
H          -4.70806007934853    5.91441172037147   -6.09621241917832
H         -10.15419396933525    7.37639917881745  -12.80661329404535
H          -9.41921160826475    9.82269066469761  -11.94400550053978
H          -4.58919719931842    8.08098158342078   -6.11797539913275
H          -5.78259620722434   10.47474761731419   -7.60369603935284
H          -5.00163599222011   12.64952570017757   -6.75598061554736
H          -2.36071211570808   12.84901206301850   -3.63672510724219
H          -2.31891507176046   10.31210197613536   -3.51232894939513
