103
 SCF done       -156.086251850693          0.000197197047
C           1.31390363812767    0.19763843629163   -3.90716795704798
C          -0.05563987624143    0.34608738174984   -3.73152692499578
N          -0.79551052306323   -0.61207403027430   -3.20668893246105
C          -0.18785822873239   -1.74061634843534   -2.82878677343564
C           1.20273085875620   -1.85340935948589   -2.96290563055791
N           1.93745401247943   -0.90071702679386   -3.50468364878987
C          -1.02726740871506   -2.79314354059917   -2.25672359920943
C          -0.61471990861514   -4.13003022854712   -2.24177540293466
C          -1.43303456992252   -5.07591914254156   -1.67112769962597
C          -2.66807419384756   -4.71165935644424   -1.10969306016442
C          -3.08895556400148   -3.39051489228749   -1.13561987777860
C          -2.26542389273103   -2.44338525340530   -1.71131481624966
C          -3.29880262922275   -5.90090243884654   -0.57448041334652
C          -2.45367153089483   -6.99823422572410   -0.80663569564941
C          -1.19991917936746   -6.56258288660688   -1.52904727169930
C           0.06282865068078   -6.85656276926137   -0.69861429566587
C           0.02475221256510   -6.21291464509068    0.68198497477991
C          -1.08353759209757   -7.24772070555712   -2.90370682417461
C          -2.31139850832986   -7.02955302717942   -3.77990190295262
C          -2.80593257641871   -8.25874612657194   -0.38983734806176
C          -4.03433938853472   -8.44917525573425    0.26021318534326
C          -4.85693747212494   -7.34223613299006    0.50511966401877
C          -4.50147402279906   -6.07415163095242    0.09419614851377
C          -4.44384622104338   -9.75952574400589    0.70628636219374
S          -5.34957537564807   -9.92077446696062    2.16977153319453
C          -5.40321157886602  -11.65073924395741    2.06922580298240
C          -4.74835106202543  -12.08731843756003    0.91303836859340
C          -4.21494388625704  -11.00982546492385    0.13371702359332
C          -3.61161919949618  -11.29596358442666   -1.10969255962988
C          -3.48347489575222  -12.59184413275145   -1.51922161772819
S          -2.73678152250436  -13.00028037541393   -3.08304089392338
C          -3.95344872069242  -13.67253733989453   -0.71795410303376
O          -3.81003965039774  -14.96224336145745   -1.11026304649765
C          -4.58823595067986  -13.41251945048094    0.46701690744579
C          -6.05593629764353  -12.43661839112427    3.05242634396893
C          -6.70287775508454  -11.92771827990600    4.12353564884872
C          -7.40640345889580  -12.66098550295814    5.14348754102584
C          -7.46130204597312  -14.06416014868327    5.17195914101919
C          -8.17429470320093  -14.70028410464096    6.15848002054949
C          -8.80888274306452  -13.95686254618971    7.17045702307061
C          -8.75822005575985  -12.57060298150198    7.16065042067895
C          -8.06956572441076  -11.93871583631460    6.14687309022629
C          -9.40257011402458  -14.87543079676797    8.11804843303312
C          -9.13650752057084  -16.18721916708009    7.69272766540564
C          -8.39149560925759  -16.18159999678373    6.37456174161671
C          -7.07192794557268  -16.96237191152440    6.45168868764636
C          -6.17320765894670  -16.46916805273981    7.57986338014476
C          -9.34966038129948  -16.78042187670805    5.31763458174658
C          -8.87042913122436  -16.71963579978003    3.87321720333067
C          -9.57430557001518  -17.26081719191054    8.42874959071431
C         -10.29179873802690  -17.03721350316506    9.60992188551423
C         -10.54494856857162  -15.72939885394066   10.02971375655679
C         -10.10414958354743  -14.64680050555864    9.29247758110222
C         -10.75600029131095  -18.19265150406590   10.37669718925073
C         -11.83385343055539  -18.14277298997037   11.27190076913146
N         -12.21497927414844  -19.19246885563741   11.97426608462403
C         -11.55027269140221  -20.32492903178486   11.79065842028270
C         -10.51708008608762  -20.40421361458080   10.86672555780548
N         -10.12213549038464  -19.35190301570050   10.17508196195013
H           1.92749118558832    0.96207128846860   -4.36231688774257
H          -0.57796042689409    1.24879094678767   -4.01964140017150
H           1.74575252111022   -2.71944869571534   -2.61055429326804
H           0.32478509117573   -4.41691325185906   -2.69012903053222
H          -4.04062630999079   -3.10583348300463   -0.71263435659886
H          -2.56053213229096   -1.40634091173468   -1.74715630468828
H           0.93427880830645   -6.49109474501447   -1.24620494119004
H           0.16752979027260   -7.93842464590080   -0.59055483108900
H          -0.05938737775075   -5.13152677710990    0.59974556084354
H           0.93479845959577   -6.44748324814027    1.22932470687610
H          -0.82518678374869   -6.58006633499406    1.25293044378714
H          -0.93124715133072   -8.31853766834420   -2.74760811562574
H          -0.20068897694182   -6.85886006247758   -3.41543639689995
H          -3.20287578578342   -7.43190937529467   -3.30297177998694
H          -2.18015787601817   -7.52255557514336   -4.74083514524457
H          -2.47064270002422   -5.96842302779038   -3.95736334020348
H          -2.13115714514148   -9.09145161686678   -0.51742782594938
H          -5.79465390230926   -7.49896891486738    1.01853404716894
H          -5.15141372081265   -5.23457334935670    0.28923290704317
H          -3.28459069911672  -10.48570956313778   -1.74316171067098
H          -2.54059184674067  -11.74439874219024   -3.46757821946503
H          -3.36807381829139  -15.00797306258868   -1.96761560860312
H          -4.96352301913358  -14.24366873066255    1.04029777698908
H          -6.01630641016471  -13.50351014785503    2.88836195184311
H          -6.71739404987470  -10.84944699062340    4.23532729876691
H          -6.92944775693427  -14.63457542726188    4.42748300496684
H          -9.24502171763833  -11.99595403163722    7.93469693693943
H          -8.02653269310555  -10.85894193625365    6.12320768472382
H          -6.53989540212442  -16.86221965512279    5.50466056875559
H          -7.29701064796801  -18.02006778439893    6.60256574609909
H          -5.93656587731567  -15.41539839258481    7.44776574543474
H          -5.24281553040012  -17.03244410511188    7.59216220335162
H          -6.66322915102881  -16.59258354993849    8.54289949581531
H         -10.30266656497734  -16.24944575295715    5.39188157698229
H          -9.53159430054613  -17.82242036412784    5.59033827942589
H          -8.77269536659208  -15.69004117530927    3.53992253352594
H          -9.59829255729082  -17.21307893374810    3.23242815801101
H          -7.91679268964849  -17.22602100673255    3.74941706989057
H          -9.38057267393687  -18.27856101248636    8.12776377020892
H         -11.07122717936591  -15.55601912436481   10.95629287393113
H         -10.30067659893448  -13.64024611382900    9.63052677332104
H         -12.41858662117124  -17.24506269591568   11.41673623316402
H         -11.86439384143964  -21.17101442075733   12.38524180524171
H          -9.98720792790021  -21.32793856590781   10.67458164047973
