89
 SCF done       -164.997025015867          0.000595780452
C          -1.06675344182252   -5.28279480631579   -4.78658788761720
C          -2.26852697532029   -5.15952124335295   -4.09148178620435
C          -3.26218634540119   -4.27386953261997   -4.57489862107064
C          -3.06422786648227   -3.52673585714812   -5.72280693546781
C          -1.86468761980097   -3.66674960315352   -6.39309266372144
C          -0.87837887674158   -4.53598314234742   -5.92875736627987
S          -4.64581703760546   -4.31707836530089   -3.52772294834234
C          -3.77787486461151   -5.51324030936333   -2.53367867690457
N          -2.60233728793465   -5.82318805045776   -2.95602143551695
C          -4.37253171419418   -6.05672983397770   -1.36273282342836
S          -5.96702156590806   -5.61131506223086   -0.84561739884381
C          -5.85312240431265   -6.65475176299987    0.53864940173711
C          -4.63286735261024   -7.30245186918939    0.56962049691677
C          -3.80316084462934   -6.96761021998632   -0.49804769665881
C          -6.91912992415105   -6.75940260686079    1.47452606957450
C          -6.94004254582655   -7.46197903671682    2.66195970155087
C          -8.14271894975371   -7.34264708349889    3.35616676286793
C          -9.07168971687764   -6.55124440278186    2.71400886197218
S          -8.43230523167749   -5.93998733406908    1.21464041447936
C         -10.38572113870386   -6.22367331861126    3.13616483009732
S         -10.98912612168495   -6.74128131762648    4.68282035934375
C         -12.53087317330221   -5.97799835714082    4.39390729044180
C         -12.53980464026785   -5.36360625282139    3.15495676164288
C         -11.34356128781230   -5.49792719747300    2.45659535638492
C         -13.54158886592953   -6.06084246147173    5.38338849118106
C         -14.80548070907385   -5.58455195938947    5.25455481741123
C         -15.79793902190804   -5.68288387067557    6.25458233294027
S         -15.49658120530974   -6.37401424137605    7.84115668058629
C         -17.13270997807408   -6.14199045319617    8.39985983490932
C         -17.88810738225622   -5.54859784865288    7.38514367505875
C         -17.12632424758678   -5.29543408246657    6.20088704058269
N         -17.94947372400909   -4.71641389384213    5.28641153623140
C         -19.19582976814117   -4.59972891722647    5.85760916954466
N         -20.24141422801417   -4.03050516467623    5.11741239039377
O         -19.96831270154601   -3.66593029618282    3.98127954803817
O         -21.33525252244159   -3.93596889897788    5.63997860414514
C         -19.20237012392246   -5.09748528697949    7.14413436256860
C         -17.52093410826549   -6.52462092506605    9.69659231811937
S         -19.17462846384961   -6.37428564468261   10.23263094904856
C         -18.76593136006106   -7.00612667569715   11.80306994742486
C         -17.41875963269052   -7.30662620536738   11.87839478693987
C         -16.72482706632384   -7.04346958575438   10.70453221902625
C         -19.75197331826125   -7.15528499303500   12.80896049628509
C         -21.11244420502356   -6.94470355881128   12.70904764317301
C         -21.80000184648019   -7.18534776946212   13.89579632206430
C         -20.98081548389667   -7.57846250804181   14.93616524429814
S         -19.32166951327583   -7.66101608214455   14.41916841646508
C         -21.35250939332935   -7.87404247900828   16.27551484770288
S         -20.16345933207571   -8.16690110017487   17.50621724999537
C         -21.39308174218977   -8.37816016396245   18.72091915663632
C         -22.65013222242258   -8.23419234110417   18.16402716063129
C         -22.62919033576377   -7.95102151884507   16.80178160254843
C         -21.01256956209167   -8.63442468507593   20.06517982409148
C         -21.86800366848890   -8.80848774559432   21.09761424684333
C         -21.41421455623423   -9.03149720206711   22.42802038438126
N         -20.18859657506900   -9.08030652046958   22.81723444393469
C         -20.07071248268140   -9.29437642150360   24.15016442142831
C         -18.87445568626070   -9.39037040122357   24.86028897764263
C         -18.92187941781636   -9.60808577832793   26.21935426832836
C         -20.13929267297162   -9.73263808187559   26.88819935805663
C         -21.33846066417927   -9.64108367273269   26.20907641708733
C         -21.30052971958057   -9.42158060665842   24.84317396208354
S         -22.61775024285009   -9.25804569786384   23.72717409367821
H          -0.31201856230872   -5.95815144349625   -4.41697657112964
H          -3.82974534203814   -2.85508521643434   -6.07906638122743
H          -1.68935119549779   -3.09350594444549   -7.29088089640303
H           0.04814957974646   -4.62306561004619   -6.47619653947778
H          -4.35921704328602   -7.99805111120514    1.34156791861373
H          -2.81621873271120   -7.36086597385046   -0.65701241123751
H          -6.10472747845714   -8.03802295404278    3.01553204897398
H          -8.34464419478019   -7.81633411470631    4.30063400696488
H         -13.38922681541031   -4.82778709612098    2.77219761886266
H         -11.16372419774806   -5.08651788199700    1.47881924641422
H         -13.26921972703422   -6.55588538000878    6.30658886414011
H         -15.11217990043505   -5.10252761610780    4.33656677259531
H         -17.74552552042027   -4.41076103878414    4.34849808869537
H         -20.04596837739910   -5.12333751677043    7.80253299432851
H         -16.97093286693488   -7.70845740029292   12.76997609139969
H         -15.67138291460972   -7.21354899712748   10.57026928097217
H         -21.57979176116307   -6.62650351727949   11.79392249793730
H         -22.86287878908983   -7.06795992826900   14.00085146409130
H         -23.55663207481826   -8.32842450611537   18.73358830294172
H         -23.51441160094898   -7.80922289270179   16.20896073380390
H         -19.95251738443540   -8.68346603983589   20.27295919023569
H         -22.93805972068205   -8.77927238396989   20.95559236242607
H         -17.93988892862032   -9.29095986231095   24.33184380817568
H         -18.00219281768593   -9.68298752764941   26.78016414659387
H         -20.14582341797996   -9.90373903423796   27.95408820784311
H         -22.28194553744663   -9.73720670654278   26.72362184504906
