100
 SCF done       -170.775703810717          0.000320942234
C          -2.52011671982052   -2.86777303379235   -4.79878442809245
C          -2.63865348604182   -2.45445814004738   -3.46835739696079
C          -2.64722734899511   -3.42014873009841   -2.42587916065371
C          -2.54247958877809   -4.77404458481409   -2.71005944593250
C          -2.42716649726943   -5.15704605787707   -4.03000187009407
C          -2.41554848117875   -4.21291447974192   -5.06143232801338
S          -2.79309197376550   -2.63215722742163   -0.89066091380060
C          -2.82506577213546   -1.08700157899154   -1.75760364165050
N          -2.74197382545607   -1.17775374799086   -3.04410637030598
C          -2.88888010794358    0.11932634251782   -1.00595107030610
N          -2.97018291586467    0.09016158730879    0.31085099597792
C          -2.95109665270240    1.38449529583285    0.70674943866230
C          -2.85370769205856    2.28950046493796   -0.44371146582917
C          -2.79746944009092    3.68720287936639    0.00312491971481
O          -2.70424903770610    4.69380400268489   -0.66693022520265
C          -2.86909723556535    3.55869283865910    1.47354761155992
C          -2.96130734409883    2.13465503662619    1.85744728912331
N          -3.01591811648282    2.00532302018517    3.20675503170479
C          -2.96628283598386    3.22959441288904    3.67001981482819
C          -2.87098987534558    4.24888471758391    2.64190661073877
C          -2.81339857757437    1.49071757259176   -1.55960000922136
C          -2.68132015117848    1.77383236912852   -2.94184478461853
C          -2.53026925204759    3.01264298336301   -3.46155378907685
C          -2.34993078092002    3.25688211334228   -4.86871199574041
C          -1.97754957199899    2.24834326105911   -5.73547641686417
C          -1.81638079893416    2.52384747780099   -7.10094640433733
C          -1.40593696189688    1.69649782024941   -8.14495788060134
C          -1.04343092043722    0.25860247634005   -8.02723789862579
C          -1.74552956226153   -0.61413724936183   -9.08377333541374
N          -1.98086834061116   -1.93167237407154   -8.52068894139137
C           0.49062542933923    0.06848636905361   -8.04751933978392
N           1.01273729435387    0.26121826973239   -6.71094560704639
C          -1.30279818671255    2.52953127160760   -9.31808408905645
C          -0.75788809578181    2.31089656041512  -10.53486973669778
C          -0.50038909722047    3.45578876020267  -11.43345409998423
C          -1.33076292726735    4.67400721029895  -11.16344979877007
C          -1.89376838721761    4.87412431013927   -9.94222132593774
C          -1.78668485227886    3.87803970629887   -8.95946138245938
C          -2.06354697661015    3.86423427738770   -7.59811024645389
C          -2.42915555699182    4.88164322266608   -6.69246600755902
C          -2.54772431362126    4.58279517769107   -5.37018193436089
C           0.74555173529964    4.22404558284380  -11.02730912770430
C           1.24141539544987    4.22074154759895   -9.76994573607363
C           2.18135957087512    5.14263176414833   -9.25843767359852
N           2.85428799520261    6.02651151697171   -9.98899915259987
C           3.50640453654366    6.80267799044641   -9.10938756136645
C           3.21107893307997    6.41228597576877   -7.71903316899060
C           3.91735227580116    7.29363888642481   -6.77232055189686
O           3.87016576577481    7.28524331198797   -5.56016589879183
C           4.66942093412433    8.18611294014926   -7.66717358870141
C           4.38442024494805    7.86500254047646   -9.07834269759520
N           5.07750930384340    8.68038192831267   -9.90488847233017
C           5.76951490456853    9.46656371156772   -9.10885598111715
C           5.56641648726119    9.20960757158272   -7.70435988782830
C           2.39291160038502    5.31700792589693   -7.79992287189717
C           1.82268925752145    4.49042867579279   -6.78732476048924
C           1.74990961980250    4.81483574692481   -5.47940605564979
C           1.25745360440951    3.89851659375799   -4.50193245017830
N           0.99297723576963    2.64973235357707   -4.71050234344831
C           0.68027397402476    1.98815383970041   -3.56808171538508
C           0.44460258845857    0.61689130879477   -3.45512177679599
C           0.22792198846105    0.08548779244573   -2.20415041970543
C           0.20867082860684    0.89188755943949   -1.06490447434268
C           0.41863534647505    2.25314030184360   -1.15446169092128
C           0.66748172465867    2.79609279004174   -2.40408736681891
S           1.07093681203448    4.42800324185880   -2.82099404273114
H          -2.51459336924696   -2.13768720728045   -5.59231945229980
H          -2.55117972108278   -5.50165837976025   -1.91413409835279
H          -2.34423077086178   -6.20594179956811   -4.27151491475154
H          -2.32483307040311   -4.54837310572802   -6.08315360292712
H          -2.99629647303905    3.41103545916862    4.73039153150402
H          -2.81632451621963    5.30549987104456    2.81531820978183
H          -2.70281016526668    0.90470785929960   -3.58124565926478
H          -2.56286232850126    3.87560314003802   -2.80831379957620
H          -1.77171566954220    1.25641271768237   -5.36835816241288
H          -1.38473420533634   -0.10393797175124   -7.05361392428202
H          -1.15160373344868   -0.63431029129201  -10.01278197112261
H          -2.72195238368469   -0.18078135798689   -9.31927104333069
H          -1.10040935637849   -2.38121550332402   -8.29172086587930
H          -2.47390080002953   -2.52260886159086   -9.18027138990306
H           0.93315788173862    0.73871810902193   -8.80616665098171
H           0.72363680321172   -0.96082682939741   -8.34030461365197
H           0.84747062157590    1.20565353910302   -6.36982334397092
H           2.01294439022981    0.09868944516971   -6.68520554189124
H          -0.37470846813923    1.34679246177060  -10.83350816707647
H          -0.46707898045772    3.16934370163692  -12.48449037406572
H          -1.38017129446544    5.42091826461066  -11.93841823978210
H          -2.41456546243302    5.79283682778813   -9.71806971989118
H          -2.58955240066752    5.88692783131372   -7.05247237172365
H          -2.80930110112171    5.35293746501278   -4.65940931391919
H           1.16910873289223    4.88504932712223  -11.76743156896997
H           0.82008873461495    3.54878146545085   -9.03797431117622
H           6.41424914223201   10.22271800033589   -9.52268177622787
H           6.03723421150760    9.73550977591190   -6.89736316545088
H           1.42667696990806    3.52981875014088   -7.08802672702849
H           2.10421600212745    5.77143884355159   -5.12301698353234
H           0.46907725454278    0.00375861309122   -4.34231518351185
H           0.08059349303320   -0.97886940788964   -2.09692631576659
H           0.03705854559911    0.44382030968055   -0.09717589465848
H           0.40905435997068    2.88039093871147   -0.27647949686435
