96
 SCF done       -188.290262711320          0.002120917381
C          -4.70003065691144   -4.20271656694942   -9.36631469539381
C          -4.32032396099192   -4.38902868167951   -8.04064754546238
C          -3.08102820273254   -4.99999164518675   -7.74856738061877
C          -2.22996978962899   -5.42085065158125   -8.75629593083994
C          -2.62742691671423   -5.22476122947252  -10.06460846162008
C          -3.84830650411012   -4.62311849274751  -10.36507565636911
S          -2.86650400065814   -5.10391923111557   -6.02949333445628
C          -4.44369824926334   -4.32164348967284   -5.85846759692072
N          -5.04515235373568   -4.02775391121464   -6.94254187079377
C          -4.95247858081216   -4.05841580136918   -4.51500993189196
C          -4.65720364101163   -2.87332600737460   -3.83879747036711
C          -3.80787292611163   -1.81802358316926   -4.41045917019965
O          -3.26489283279322   -1.79702630726210   -5.47279076398956
S          -3.67039125433694   -0.48932210084867   -3.20349681275258
C          -4.65878842286993   -1.34835605235031   -1.97579436543312
O          -4.84275924369249   -0.90538282089495   -0.87739831906858
C          -5.13309071324605   -2.61987064828229   -2.54813862825739
C          -5.93863766949925   -3.54171565615058   -1.86856506221604
C          -6.23083075123431   -4.72875343087485   -2.54867907945988
C          -5.74191232250147   -4.98389546248116   -3.83396278915836
C          -6.11768599106529   -6.29243070835195   -4.39322536219393
O          -5.79172553483090   -6.76846433172748   -5.43847835225841
S          -7.17777453676833   -7.13142050223480   -3.20855822416254
C          -7.09381891890888   -5.79018060410359   -2.00818088454876
O          -7.68081587258220   -5.81166178628793   -0.96671167835230
C          -6.40813110656708   -3.28181951823590   -0.49956463038256
C          -7.28195344443160   -2.25448529685766   -0.25219150607615
C          -7.62592606245860   -1.94782765704752    1.07916542087546
C          -8.39990440500807   -0.92105312050316    1.61930191173747
C          -9.17232774002258    0.15007924049743    0.94625421578394
C          -8.25696408124020    1.28460035799022    0.40800966351379
N          -7.35734256024183    0.80096614897589   -0.61291486992818
C         -10.07343972901299   -0.35074782503422   -0.19850629350076
N         -11.09882043682544    0.64505816475571   -0.45025387840759
C          -8.28717459322608   -1.03366434470461    3.05850147096969
C          -8.76943383878872   -0.25467941128657    4.04659537529585
C          -8.42571274335588   -0.52400657741208    5.47065343611659
C          -7.68856550237405   -1.79587371227920    5.71247277675356
C          -7.21753784410861   -2.56580378261940    4.70796976309521
C          -7.45833918188670   -2.19988048563494    3.36649834183314
C          -7.05611939492568   -2.74544437723314    2.14982189450410
C          -6.21246508076506   -3.83043907665910    1.85226433264360
C          -5.89508658412748   -4.08837967658517    0.55158468058326
C          -9.65466916101164   -0.38227594331537    6.33538914879812
C         -10.13826116558397    0.80242574225382    6.67525650967650
C         -11.36991629774497    1.02751214221022    7.42895615139005
C         -11.55006452829348    0.64605292384983    8.76190832619563
C         -10.53443900518349   -0.04319844721260    9.57490169069849
O          -9.43729928833818   -0.39819027479893    9.25421265342202
S         -11.19145114356466   -0.29485711704321   11.22973632051511
C         -12.76039870571792    0.50167831446825   10.85456306693978
O         -13.64745352849975    0.60889416032637   11.64671839254082
C         -12.72779501915366    0.95283878027339    9.45552587515751
C         -13.77867987722063    1.65093379201048    8.85951645309786
C         -13.61529787398972    2.00127527665337    7.51893450665750
C         -12.43946772390488    1.69923568076966    6.82543309902413
C         -12.43842251024010    2.11488896662862    5.41822405421562
O         -11.57492821821245    1.94270061969040    4.60109435465394
S         -13.99088777219296    2.93151395898294    5.05528336357692
C         -14.63660733026388    2.69739000359110    6.72636381757714
O         -15.72468180002116    3.05500378362066    7.06095712395182
C         -14.98236169912540    2.00628810685849    9.60678173353659
N         -15.13575106049943    3.09428520140408   10.25291735870950
C         -16.35369140970473    3.15520202864236   10.86390724423175
C         -16.82158476288141    4.20641367712769   11.64620363962823
C         -18.08055955007253    4.11111638580358   12.19886378909004
C         -18.87843896751286    2.98868536128685   11.98431751766737
C         -18.43522866539145    1.93390118559224   11.21096732196169
C         -17.17120072990481    2.02259208837567   10.65334814119696
S         -16.33978499099806    0.87565876393654    9.65007987295081
H          -5.64680692239128   -3.73600839287429   -9.58454217922928
H          -1.28613362220762   -5.88653897347533   -8.52083157520168
H          -1.97989976091636   -5.54373594764278  -10.86744966400983
H          -4.12803857903754   -4.48408118363509  -11.39837968574612
H          -7.67115526399927   -1.65881508673478   -1.06105297709439
H          -9.82634448050134    0.61772787805602    1.68968777076624
H          -7.74175299415240    1.74051805922219    1.26757482649869
H          -8.92259229406372    2.02555000757346   -0.03847304975278
H          -6.54987205168694    0.32939658016129   -0.21996704766236
H          -7.03544976220607    1.55144973291046   -1.20900698007501
H         -10.47710684415241   -1.34148117413069    0.06797368917414
H          -9.47861394716453   -0.44778589870429   -1.10691520575722
H         -11.75812740293324    0.68809433973905    0.32004365632036
H         -11.61442094738148    0.43019417134027   -1.29502047181842
H          -9.40041668775979    0.60345471137740    3.86027883061262
H          -7.74823397837893    0.29763135967534    5.76387846198622
H          -7.52445056338993   -2.05379784679010    6.74721315493626
H          -6.66009183400934   -3.46634405729085    4.91755928538099
H          -5.80647314775601   -4.43326314803790    2.65030050547054
H          -5.22642431925541   -4.89825337775457    0.30064030212046
H         -10.15174688074008   -1.29811974510874    6.61710495758710
H          -9.65023589809153    1.70896212904863    6.33672459148997
H         -16.19305209332399    5.06787576432526   11.80395436288041
H         -18.45736171916652    4.91796118891906   12.80921732925181
H         -19.86035048029365    2.94107897827284   12.43059086337813
H         -19.05065056353985    1.06381542254478   11.04404198286961
