92
 SCF done       -158.543930685069          0.000274536152
C          -2.24429698061920    2.20615751922920    1.54093163970944
C          -3.39302828034301    1.58953299329938    1.04416478087625
C          -4.10965721406399    2.19744040502175   -0.01889968718766
C          -3.69033535061547    3.39546993428990   -0.57313819309391
C          -2.55092601275361    3.98489927021047   -0.06327439909024
C          -1.83652356734397    3.39553604514595    0.98175724000508
S          -5.47982129000678    1.22380677222238   -0.43644261581669
C          -4.97993170890010    0.08283552091964    0.84723331625722
N          -3.91873584517387    0.42521075851290    1.48399671182775
C          -5.73567806945201   -1.09441007160427    1.08650493547790
C          -6.94321359458209   -1.49663629429568    0.36897440361162
N          -7.44408142622159   -2.63351741781607    0.76213987221591
C          -6.62412461940805   -3.06739269661036    1.75937405613585
C          -5.53667284442956   -2.10868843769441    1.99713313164282
C          -4.66283894394541   -2.59600510209153    3.03675820114229
S          -3.28577069106883   -1.87285457723081    3.57041597156739
C          -5.24284758899119   -3.85567200595747    3.43489434400855
C          -6.44075349040594   -4.12236366040691    2.61788289051022
N          -6.98028200215361   -5.33381307986697    2.92777237733446
C          -6.19380115254475   -5.84131543923887    3.83264003206965
C          -5.07049144423973   -4.98151173897221    4.21534363410767
C          -4.09356228028496   -5.32162500859315    5.21045094869982
C          -3.81132972118231   -6.64813398595978    5.48137674324420
C          -2.82916317464242   -6.96947928377227    6.43048112495524
C          -2.35111034931775   -8.20790155180179    6.85811896544494
C          -2.82009326780101   -9.53538762124523    6.38453096269592
C          -1.66765965832137  -10.47800823579733    5.98528365485806
N          -2.09696988951786  -11.30004756687323    4.87080710541596
C          -3.73560460490928  -10.19315015614482    7.44103635016449
N          -4.94882602750278   -9.41541716868447    7.58027977193385
C          -1.36732944050760   -7.93888668702196    7.88266271102452
C          -0.62799821738277   -8.75807034462584    8.65466088235142
C           0.30442879683186   -8.23382967805853    9.68808003512767
C           0.39473931058866   -6.73886237331610    9.74974799561861
C          -0.35854780577050   -5.93263731200646    8.97879783618541
C          -1.25905291694459   -6.48068445007997    8.03610907226897
C          -2.14739614588685   -5.90347004946787    7.14723445240009
C          -2.47079234690040   -4.55844181871344    6.86180140269106
C          -3.40856000203673   -4.28338639693338    5.91864379941584
C          -0.07953085370205   -8.70765718557712   11.07086511188468
C          -1.31698428096162   -9.10137990124096   11.38661482215346
C          -1.74191839324273   -9.55743884833645   12.67342080594661
C          -1.01603839788357   -9.56321925126100   13.94286093562832
N          -1.68234776424487  -10.07313775850400   14.94280420208355
C          -2.88746100197082  -10.44791115395711   14.42675225420677
C          -2.95334255057032  -10.12322250556044   12.99525031799689
C          -4.21636332426111  -10.53702162819199   12.44460890017814
S          -4.70698179088642  -10.37580753028246   10.88356070428171
C          -4.91570625343293  -11.12208922695527   13.55990613668758
C          -4.07304141887456  -11.04827986432593   14.77119339012524
N          -4.70933300798726  -11.60786170602270   15.83690114034678
C          -5.85655018946855  -12.02271545945287   15.38289816188813
C          -6.06774448029059  -11.76152158165967   13.95584658762575
C          -7.24202165139199  -12.14776210994063   13.25843132556343
N          -8.21860362575832  -12.78295346113893   13.81434490186604
C          -9.22240004029417  -13.04966901189298   12.95009182475843
C         -10.40677319424025  -13.72482500132139   13.25315376690056
C         -11.33290050113498  -13.91847367576339   12.25499694655961
C         -11.10607757699622  -13.45285838019984   10.95730893577800
C          -9.94458757260291  -12.78359735106462   10.63152443190536
C          -9.00324378096352  -12.58298776125852   11.62857559180669
S          -7.46722070161833  -11.79230967378941   11.52987314783172
H          -1.70609484876179    1.73560250057213    2.34766249582679
H          -4.24247851105458    3.84960401065279   -1.38108877885580
H          -2.20595239785243    4.91840770507832   -0.48151582632798
H          -0.94918280601807    3.88493754102340    1.35407653714895
H          -7.40859982765809   -0.92912551664115   -0.41823863444105
H          -6.41774842876448   -6.79990714628321    4.26746757435842
H          -4.31573119555863   -7.43833023926973    4.94780382802268
H          -3.42633753480542   -9.38546666048513    5.48734138088081
H          -1.34676214575399  -11.06670121624545    6.86117668901302
H          -0.81435908582380   -9.88462004197076    5.64407021162479
H          -2.86468677218462  -11.90302980852561    5.14535083952187
H          -1.34019750033822  -11.88488725833358    4.53634798963129
H          -3.17537155832111  -10.30764322982497    8.38332770426454
H          -4.02211685781460  -11.18981560214266    7.09461901499258
H          -4.74079254802852   -8.51181735786675    7.99358557405105
H          -5.60207414859972   -9.88908520098710    8.19378205304712
H          -0.69054221954651   -9.83367017671881    8.57600129301036
H           1.30582835125132   -8.63862681232110    9.47233544902740
H           1.08227865351967   -6.33557718481427   10.47728769327302
H          -0.27962075770466   -4.85875403596451    9.06390117621955
H          -1.97286237301995   -3.76211924647472    7.39399849856336
H          -3.66554775095854   -3.26200645492028    5.69018449177990
H           0.70265632276302   -8.67029285308416   11.81503256464949
H          -2.08648494020603   -9.12067633809397   10.62498151012274
H          -0.02186665783243   -9.18277486725114   14.09864697465996
H          -6.57318477370940  -12.51089307431193   16.01785256076326
H         -10.56812327702537  -14.07849999449510   14.25865895916106
H         -12.25301453790958  -14.43916947118971   12.47338956928024
H         -11.85293713821175  -13.62043512195045   10.19610930940903
H          -9.76676052271417  -12.42297582732715    9.63040049539752
