116
 SCF done       -190.123084924546          0.000960006540
C          -2.15483145566250    1.60596237509912    1.78263685416865
C          -1.10562534447867    1.72439459869599    2.63171963554235
C          -0.18289348075344    0.66145871048936    2.50473525832229
C          -0.53218052971009   -0.24152852149514    1.54783657685930
S          -2.04302178911558    0.19227912329622    0.80921327389714
C           0.14974442847575   -1.50148302485872    1.23254704527688
C           1.27065184191698   -1.60049447589522    0.39397026177199
C           1.82460838080310   -0.51334925411453   -0.43658627080813
O           2.93010880266726   -0.58501387182259   -0.93183849271520
C           0.98407177219553    0.69393251058694   -0.70963448023590
C           1.11211942824986    1.85442593676208   -0.01687391692163
S           0.13409057202130    3.12163703521480   -0.65313070993545
C          -0.39953760506550    2.10965532842280   -1.91612034222378
C           0.11625698197875    0.84270983136677   -1.83821956599586
C          -0.14451297495643   -0.15416838504400   -2.89273397056078
O          -0.47435846765049    0.18020531270223   -4.01080818807561
C           0.00633394859873   -1.59312816796763   -2.52708860137740
C           0.99574772953966   -2.36681116047037   -3.12131692897051
C           1.06815229830885   -3.72110410822966   -2.84946246845932
C           0.13538084443007   -4.31365700314176   -2.01511397385917
C          -0.86244232680354   -3.54872146578646   -1.43480471930489
C          -0.92134117074982   -2.18890132965624   -1.67940912312881
C           1.91709444674333   -2.83607416336252    0.28568980124424
C           1.44360857586947   -3.95566310766145    0.92618790515036
C           0.29253806755501   -3.88138621868299    1.71259472450630
C          -0.32117417195093   -2.64149584605865    1.86862828446302
C          -0.26247652026519   -5.08106996812153    2.34360102369430
C          -0.30140575298733   -6.26011282626733    1.64981030896718
C          -0.85371434309593   -7.41591728156086    2.24578544976037
C          -1.01747565260399   -8.70191620386430    1.75997339966427
C          -0.64404853063982   -9.18263101893207    0.39573022798271
C           0.44849942295289  -10.26490593339773    0.44949122015181
N           1.16732792273918  -10.28822419124064   -0.81169388704347
C          -1.88749567041199   -9.65330599766047   -0.37891194463164
N          -1.57291914029940   -9.86502691555389   -1.78561013570763
C          -1.61640598105353   -9.47339629189296    2.82210605301500
C          -1.95966700743224  -10.77346911038474    2.91051786216816
C          -2.58638504406110  -11.33506441218179    4.13470771689137
C          -2.72719585996698  -10.37989401900997    5.26763051201211
C          -2.37921951065367   -9.08254512834128    5.17092706779740
C          -1.82046197848790   -8.58001137160176    3.97376313432435
C          -1.35277829044424   -7.33220881874967    3.61079268324444
C          -1.29264851212491   -6.09952594663459    4.29984617485040
C          -0.77341612398582   -5.00984378899023    3.67816080450235
C          -1.90810352169641  -12.62673760875752    4.51140480875698
C          -1.08223268355807  -12.77187313744944    5.54269453469387
C          -0.49270124907616  -14.05272495577144    5.92020801631420
C          -1.21654815857136  -15.24983717092140    5.79256757047944
C          -2.66092279640836  -15.26218247459547    5.45410559932696
O          -3.14613521977283  -15.98527169788096    4.60796273442549
C          -3.49596017751008  -14.36327776081761    6.28227662019237
C          -3.20720171536428  -13.97139357814137    7.55889318472883
S          -4.40748527348019  -12.94452269261535    8.21567224218868
C          -5.31624801739417  -13.01607377438018    6.75174271388920
C          -4.73574093255525  -13.81830241843524    5.82500418081719
C          -5.25090114010781  -14.04593545492418    4.43991167481297
O          -5.02956550379583  -13.23520345393278    3.56268741148990
C          -6.01835698209453  -15.28252538123958    4.22587239236800
C          -6.39422509625506  -15.61641218374534    2.92403508122682
C          -7.10586404901669  -16.77343994646727    2.68009698258428
C          -7.45247125232130  -17.60601000850074    3.73284151825473
C          -7.08621997550433  -17.27913146553596    5.02975704350421
C          -6.37092199592056  -16.12472720027294    5.28009424020662
C          -0.58354595550463  -16.46378922499905    6.04298341635033
C           0.72383009464573  -16.49975228255294    6.47448059659441
C           1.44670773162360  -15.31653482537164    6.66181235442107
C           0.81988154806413  -14.10431638416484    6.37187208146430
C           2.81384023529586  -15.35719377029819    7.13557900381785
C           3.71568347646535  -14.33322638546120    7.26617643426272
C           4.96513915205981  -14.74646435048651    7.76523138972396
C           5.01291429098826  -16.08070775200202    8.01637083666215
S           3.53431398100093  -16.86185428721177    7.64116819851199
H          -2.99462435000664    2.25974417360540    1.65830191190672
H          -0.98769302837272    2.53595368841040    3.32705635227923
H           0.71072381140014    0.56800256270742    3.09645894590161
H           1.71735758818195    2.03794967879409    0.84833801226401
H          -1.07753237516007    2.47397624976747   -2.66237522490255
H           1.70745543110439   -1.90038525387649   -3.78571052284648
H           1.84588898795587   -4.31811987104361   -3.30197968111832
H           0.18374149245654   -5.37558972916933   -1.82341842745241
H          -1.59378300705174   -4.00941292094650   -0.78713002265710
H          -1.70288165158837   -1.58944740949384   -1.23506068942903
H           2.79870730393826   -2.88639389863926   -0.33573627475697
H           1.96468211795896   -4.89595807644604    0.82902009289376
H          -1.20457264934920   -2.55845058772229    2.48587598010370
H           0.06732107622293   -6.30347635760417    0.63570385252823
H          -0.21061495700521   -8.34273281241348   -0.15662301927563
H          -0.00730949545521  -11.23403488304853    0.71140925837117
H           1.16310024922157  -10.01013936943428    1.24037011463041
H           0.49769337956748  -10.45066191107310   -1.55987908913700
H           1.84406716762896  -11.04416458337576   -0.81822371511909
H          -2.68942101003947   -8.91029776403720   -0.22611222629707
H          -2.24061250155105  -10.60542558699359    0.02451513514747
H          -1.31423315326174   -8.98326495977144   -2.21812967538344
H          -2.38608157950611  -10.22170442391173   -2.27677242552280
H          -1.79726005029159  -11.46980244289963    2.10072523777147
H          -3.60702981462688  -11.64299650191443    3.83077523461651
H          -3.15268941582914  -10.78025145912164    6.17613068390482
H          -2.51361313278192   -8.41120831351072    6.00739946377636
H          -1.66011639489412   -6.03667351668540    5.31401558155078
H          -0.70685220907680   -4.06568019418566    4.19866459619714
H          -2.12673009118149  -13.46559380479957    3.86408098743998
H          -0.79631754446624  -11.91155523393370    6.13388744139335
H          -2.35678231438290  -14.24569170646552    8.15130537240349
H          -6.23506943440217  -12.47035143448727    6.66907303797676
H          -6.10950301732431  -14.95484348407991    2.11967859478164
H          -7.39075146924795  -17.03053645207490    1.67077634448308
H          -8.00808512943674  -18.51259937781306    3.54353558503264
H          -7.35900979626153  -17.93064317490767    5.84683854893673
H          -6.08648821417451  -15.87446027326325    6.29161632363673
H          -1.14414163026840  -17.37805638856853    5.91648550909456
H           1.19775925200952  -17.44857494424670    6.67741517551763
H           1.36155177685763  -13.17755647764171    6.48130591098723
H           3.50303993924167  -13.31239470754934    7.00615616176999
H           5.79197165297772  -14.07908610125765    7.93030906072004
H           5.83028714544676  -16.65998977941101    8.39748807267318
