82
 SCF done       -138.781194437763          0.000913453611
C          -6.60541098326272  -12.26982684533264   -3.13131665365326
C          -7.23259754396694  -11.14488114510152   -3.57947752840024
C          -6.33859334143281  -10.11173446869122   -3.89150218215772
C          -5.02173361595941  -10.45410086473537   -3.67862613277567
S          -4.90471955828944  -12.09302444031491   -3.07700105105550
C          -3.84841096530806   -9.68253303208054   -3.87795425499028
C          -2.49710710167414  -10.16267674840843   -3.56262530717554
N          -1.54864177137716   -9.31337452550320   -3.81966903672613
C          -2.17888711775819   -8.21035020939677   -4.31737820576455
C          -3.63628256780720   -8.40715684610312   -4.35940685897981
C          -4.26291640357846   -7.23266460126887   -4.91508162205717
S          -5.86863138334748   -7.00553483045195   -5.21736641210845
C          -3.17458621414082   -6.32578170998013   -5.19247277539687
C          -1.90406528990181   -6.96698765433179   -4.81937994553307
N          -0.84527401950967   -6.15555717448891   -5.10325332027055
C          -1.36385707914288   -5.09505513270355   -5.64778044266581
C          -2.82657641240641   -5.11095973874905   -5.75223980027880
C          -3.60549565195497   -4.02806946872642   -6.28562534451307
C          -4.92565554685832   -3.86150292312433   -5.91143008120807
C          -5.66958695443420   -2.76577101778701   -6.38423634724131
C          -6.97725707410958   -2.34426745787347   -6.13744575762771
C          -8.08420019665780   -2.93241343182837   -5.33404905277537
C          -8.97073751116497   -3.81769102995662   -6.24864903388428
N          -8.21603778265733   -4.94949435180565   -6.72950970779639
C          -7.65999691956139   -3.74078696656051   -4.10202794928832
N          -6.80665138004203   -2.94329537111055   -3.23613711711450
C          -7.17923228870039   -1.15073629137432   -6.93367302206667
C          -8.26570813260279   -0.37330315356850   -7.09786719415588
C          -8.26343149163776    0.77858520400952   -8.03762495016055
C          -6.93085721051026    1.07635917760066   -8.65764967470144
C          -5.85600818760823    0.28368703203040   -8.48685845274503
C          -5.93521068626815   -0.85316837482054   -7.64916823252503
C          -5.02569109926600   -1.83361104102208   -7.30398017908779
C          -3.68271277506785   -2.04099327560415   -7.68984143384259
C          -2.99473574539938   -3.09741166319779   -7.18814914874485
C          -9.19685313022558    0.53682276991753   -9.20376419561442
C          -9.52164149054668   -0.68448178501846   -9.64091923209010
C         -10.37178325593473   -0.96190860755976  -10.75588383151496
C         -10.96060981015471   -0.02616253270527  -11.71530328737623
N         -11.71449415952031   -0.58425320437255  -12.62062234456718
C         -11.69316784639118   -1.91998798014050  -12.33965281864068
C         -10.84403688700176   -2.18521283054640  -11.17180204244189
C         -10.83585726397211   -3.59347794631501  -10.87194226764411
S         -10.00359354694595   -4.31407768650043   -9.64767176639930
C         -11.69861956519709   -4.17908946396862  -11.86497551779475
C         -12.20611870686471   -3.11944254573184  -12.75924694261228
N         -13.03360889195783   -3.64038025682701  -13.70970594013657
C         -13.07857523282725   -4.91621682472180  -13.46668468232172
C         -12.27220902654959   -5.34847024629984  -12.31926299714231
C         -12.18818563374127   -6.68994527049915  -11.86826327864511
C         -11.46539423743394   -7.20672502087313  -10.81543715499721
C         -11.63254604127281   -8.58901973509643  -10.66071352231968
C         -12.47677425594883   -9.12606105889696  -11.58801797896727
S         -13.08786249860236   -7.95453650209106  -12.67440731033088
H          -7.04595097775687  -13.19870248047928   -2.82754649857115
H          -8.29946615122097  -11.06284315211053   -3.68336753977678
H          -6.63614479832013   -9.14716125458003   -4.26092544183350
H          -2.27637554268661  -11.13112009012506   -3.14747195351728
H          -0.72763882445469   -4.27783233858815   -5.93952300596928
H          -5.37538046207674   -4.57925992132023   -5.24847298197719
H          -8.70658134134505   -2.10316579396435   -4.98101562739153
H          -9.38005184069435   -3.18623651275266   -7.05465312372664
H          -9.80803285242391   -4.19764189429816   -5.65745674443254
H          -7.49408695590082   -4.65418712502260   -7.37692578479986
H          -8.81569494767447   -5.61055792183105   -7.20594696520891
H          -7.22324377976723   -4.69367921906972   -4.43138765472906
H          -8.56342863349572   -3.98081426778160   -3.53336923853557
H          -5.93681886991937   -2.71727583528998   -3.70747914615593
H          -6.57860132623598   -3.46382825467710   -2.39640936550099
H          -9.19742539741519   -0.57077959901175   -6.58567097261378
H          -8.62534379501506    1.66715612559970   -7.50072491788358
H          -6.88974467936544    1.94447944291003   -9.29755816501246
H          -4.91987241966739    0.51411867659464   -8.97435867727845
H          -3.21805731456543   -1.35634632099960   -8.38405783810023
H          -1.97373804099817   -3.26753385034464   -7.49237909050108
H          -9.54755815326757    1.42240400233502   -9.71313136750253
H          -9.14729376107968   -1.55859158364101   -9.12307023953659
H         -10.81058002412836    1.03909919845354  -11.72431161692986
H         -13.67032082475179   -5.57592074401419  -14.07779507492632
H         -10.84081388133465   -6.59924473169949  -10.18606313835360
H         -11.14851896429303   -9.16740555333083   -9.89446914958747
H         -12.77682595608501  -10.14968790090855  -11.69725735889125
