73
 SCF done       -130.625084031146          0.000291492350
N           2.42718421585121    3.29353970179698    1.45438708148342
C           2.39831949237987    2.89811816091700    0.05444346926995
C           2.76662645904500    1.40682339296967   -0.09943488172740
C           4.20702844566665    1.17821423127844   -0.44803517686727
C           4.61433761524136    0.72200813739948   -1.67738740114328
C           3.85598761791591    0.32485136504840   -2.84066064528024
S           4.07458570248546   -1.28210175966374   -3.46114443595668
C           2.97205885586299   -0.96657489099473   -4.75614823993232
C           2.72372342976961   -2.01134805923045   -5.70095924854391
N           3.36301351594581   -3.17109361582823   -5.49821855225782
C           3.12780032994079   -4.10836016964740   -6.38717264440407
N           2.32130188996664   -3.99206052862148   -7.43302831276076
C           1.72941215034553   -2.81417965223283   -7.53975882024089
N           1.88630039989850   -1.79365879925968   -6.72205466964335
C           2.46908150257034    0.31829029881062   -4.70589390073011
C           2.97717355952265    1.05142818795096   -3.61540822824470
C           2.61665708478183    2.48484223500998   -3.39395695570043
C           2.10795449940201    3.12583646773903   -4.68197811369920
F           1.60298488920944    4.36997863924802   -4.36724829835056
C           1.00325961004672    2.26641182632790   -5.30000029510693
F           0.50498300389332    2.89280894046031   -6.42139080556982
C           1.54075801286439    0.89920697610247   -5.71725677176500
S           6.33672794319665    0.49042609460744   -1.73629725769204
C           6.50574877458671    1.02079282113309   -0.08547012027969
C           7.81716440350592    1.08706119510585    0.51040350479819
S           8.31216944562666    2.48603541216929    1.40460870564500
C           9.86280324108877    1.78753797142881    1.71604432750774
C          10.78742344297579    2.52751099200550    2.51590075297245
N          10.36665971457272    3.70891201685870    2.98989650913549
C          11.23412219793806    4.36375980691561    3.72581507623576
N          12.45640604501146    3.94957428311634    4.03057860787943
C          12.77627316764348    2.77193000437066    3.51948655115792
N          12.00380764299666    2.02322610727548    2.76107415120020
C           9.98631003053272    0.53573446397343    1.14555111889746
C           8.82761134975697    0.14502594841876    0.44985458640469
C           8.71312056831799   -1.20341454306639   -0.19095331254471
C          10.08047666078468   -1.84557731261498   -0.40690119123835
F           9.88023934047001   -3.16680178325309   -0.74819475679368
C          10.92441966300517   -1.76533559293969    0.86491590109852
F          12.12878649271706   -2.40406130154548    0.66006896278381
C          11.20955924015972   -0.31148575796821    1.22918513160240
C           5.28776288366309    1.35459405173593    0.45995246299816
C           5.09368067852448    1.72775742434864    1.89450066440207
C           4.87914845017162    0.48177648781949    2.76840873585761
N           6.08199837473746   -0.33466260693032    2.79549422497279
H           2.33503226740630    4.29896234994302    1.54273495715603
H           1.65874129145450    2.86471224171807    1.96003677503555
H           3.12779728406341    3.51422971571959   -0.47612106609933
H           1.41152558120465    3.07313540040215   -0.40349686259036
H           2.15077596017913    0.95120650595989   -0.87555962213481
H           2.54272507394416    0.90637445706190    0.84397998838987
H           3.63482810757535   -5.05599652470391   -6.25408877124639
H           1.05537286730733   -2.67185708468479   -8.37571377374403
H           3.47602546491864    3.03976538463327   -3.01371055166041
H           1.81817115263726    2.56665257122970   -2.65197725348076
H           2.90910800061116    3.29358192348326   -5.41158729729381
H           0.16262671374398    2.18749493506496   -4.59873512043678
H           2.07415941065394    1.01647826711964   -6.66575129586946
H           0.71848302020105    0.20983834530120   -5.91530823430757
H          10.92426305802218    5.32403856141177    4.11957197570771
H          13.76402109266932    2.38681201390487    3.74251197985137
H           8.19375743043509   -1.14697925956994   -1.14782709190865
H           8.13242766632469   -1.86736283760265    0.45903433721086
H          10.62298506844510   -1.39183960433430   -1.24529053832343
H          10.42573976348637   -2.30734470066216    1.67812911843909
H          11.96353497336858    0.07380152998495    0.53508583284511
H          11.64649040332156   -0.24518466988173    2.22625613613567
H           4.22295943131184    2.37882961635868    1.98130887494891
H           5.96933884481429    2.25180779635641    2.26938173320818
H           3.99418798180244   -0.07199089808766    2.41076675945276
H           4.68047949121606    0.81055913576324    3.79120143556800
H           6.24118440119691   -0.74780175155033    1.88249158730842
H           5.98210616306901   -1.09017068887685    3.46404849799470
