109
 SCF done       -184.939886206418          0.000906072802
C           1.98806850405394   -2.17869197080193    0.42753327663827
O           2.77059603120605   -2.92291294830651   -0.10244226635708
C           0.58221224098212   -2.41406762048083    0.82601381044406
C           0.10653959502470   -1.26653043693965    1.46655494481874
C          -1.18272730029355   -1.20130379917995    1.95242717020498
C          -1.99289802925780   -2.31985885977175    1.78179184926780
C          -1.52115187480286   -3.45803516162784    1.14567088377293
C          -0.22018350252336   -3.52316893509379    0.65620827678135
C           1.19385793994314   -0.26122538853373    1.49178798538330
O           1.20741181439546    0.84587488443855    1.95916235844290
N           2.26391732798253   -0.86369552713924    0.82116811846591
C           3.51533053989103   -0.25557007497197    0.66611473136916
C           4.23188523589093    0.35630924350613    1.63520600136504
C           5.51194525936443    0.74301550660077    1.05659058836671
C           6.50940517377928    1.44424814702088    1.74344487056862
N           7.33734849596631    2.01062241784831    2.30244698112188
C           5.57193988703703    0.30359809313858   -0.23636970097500
C           4.30912758201230   -0.30476926601850   -0.56496648925739
C           3.88366550142475   -0.71655861880240   -1.80391282988645
C           4.73560750118564   -1.01502034295965   -2.98033725601866
C           3.90335034436097   -1.18401955671112   -4.05197272153351
C           2.54134506057125   -1.02533524117286   -3.60580805768172
C           2.52859057573188   -0.78559883844034   -2.25322635888703
C           1.41774012751771   -1.11654788272170   -4.43741690386034
N           0.49973454257220   -1.19619458178476   -5.12244396138949
C           6.13807417480003   -1.24699875513006   -2.91090845483788
C           6.97284698578007   -1.25642041060470   -3.97760493515992
C           8.38828660515538   -1.48857388514628   -3.93519398477284
C           9.14269099356484   -1.23098957277567   -5.06927466731247
C          10.53444535024489   -1.39728560290576   -5.05034842971527
C          11.49963653084348   -1.17701522870454   -6.03507112545345
C          11.25622531765404   -0.76719633446611   -7.44404152402919
C          11.92378910227806    0.58521709820092   -7.78221148123026
N          11.22133697224096    1.19563469135572   -8.88387919057823
C          11.70282901896901   -1.87856782414412   -8.41438538608320
N          11.27195296478905   -1.57744936835296   -9.76720904585201
C          12.77693603434785   -1.47044915662103   -5.43161728297670
C          14.03674303431563   -1.34177489724547   -5.89044894573086
C          15.22020859813607   -1.72159338022453   -5.06864666941954
C          14.89159220499148   -2.23419872209813   -3.70904229869417
C          13.63052768745539   -2.31259447792117   -3.24092062905806
C          12.54081872065015   -1.92588561537440   -4.05586844033907
C          11.17669394105547   -1.86218890864776   -3.83172886005896
C          10.38701066892563   -2.15115460839134   -2.69817019953885
C           9.04238395491407   -1.96630520703417   -2.75335505630625
C          16.01762341315374   -2.72354519585649   -5.88290845784162
C          16.81806965637436   -2.34897286046768   -6.87912788272387
C          17.56613956974834   -3.23747309146533   -7.73647916783801
C          18.20106366776723   -4.38914720204590   -7.39891304950489
C          18.96352312996379   -4.84672277567963   -8.55002623257548
C          19.75275419223471   -6.00048182392351   -8.58088667146257
N          20.42777569439716   -6.93012087245798   -8.60127266125011
C          18.81505801225213   -3.94989844161837   -9.57529900026217
C          17.91395887666337   -2.92495512887897   -9.13538263066681
C          17.36178196362177   -1.91492275970618   -9.89135400215988
C          17.86408903576459   -1.33941647546795  -11.15254913986652
C          16.92347239005202   -0.44379132604096  -11.59441276169600
C          15.82220359132365   -0.43098716898575  -10.66730073248854
C          16.10433351169820   -1.28830652330359   -9.62954519946278
C          14.66198168281514    0.34335612300639  -10.78358348714134
N          13.71055512006705    0.98414729884814  -10.84608504875681
C          19.16144835684917   -1.58567356683951  -11.68768807869610
C          19.58820404485745   -1.17532434432445  -12.90559586299558
C          20.89408394244099   -1.37482915808491  -13.43866332474760
C          21.79546123981117   -2.36145548931698  -13.17367498065664
C          21.54574074831167   -3.62722577848340  -12.43995029969467
O          20.46341432413697   -4.13646583497799  -12.26756927828463
O          22.69407090282141   -4.18113466998127  -12.04360661941850
C          22.60333357298367   -5.45113144429689  -11.41302344959712
C          23.08006712550847   -2.26421453814494  -13.75205204735360
N          24.11842886752887   -2.16604341173612  -14.22996889177962
H          -1.54187855396997   -0.31209095710154    2.44627259216631
H          -3.00690865026271   -2.30060163728107    2.15172851762591
H          -2.17455505437868   -4.30923819192911    1.02766320489603
H           0.15446981552826   -4.40421781277179    0.15927952256043
H           3.93799143351909    0.54139482534331    2.65025719165315
H           6.36939806926069    0.49759484187560   -0.92730532046497
H           4.17674560881002   -1.44750480002364   -5.05605265400003
H           1.65487253264915   -0.57180931542394   -1.66759818301325
H           6.53051789212517   -1.43211899638979   -1.92234933049636
H           6.56808926216131   -1.01650306422755   -4.95227008033014
H           8.65535304273717   -0.87297598233838   -5.96480389638587
H          10.18152631509914   -0.61747943618221   -7.58519991217849
H          12.99267490671618    0.42045504176974   -7.98994157653166
H          11.84709528347001    1.24703587964245   -6.91205197247007
H          11.30932538389390    0.60102154749804   -9.70365169965849
H          11.60646027765601    2.10600780936558   -9.10420081927304
H          11.31450008022946   -2.84176799068987   -8.03699810302027
H          12.79370961194742   -1.94639693376915   -8.42255917797296
H          10.25901090624221   -1.58884685329175   -9.82567311026116
H          11.63164907865666   -2.26478402566741  -10.41965116956671
H          14.24744918648227   -0.96129967221324   -6.87858837159214
H          15.84758967318589   -0.82326374951992   -4.95834599176052
H          15.73159644121101   -2.54041309912614   -3.10403463616969
H          13.43472307790530   -2.67301958431759   -2.24175794435209
H          10.85857001710321   -2.51364185564900   -1.79690206523350
H           8.44260000616075   -2.19794684917924   -1.88769371155677
H          15.83600127779440   -3.76504823681089   -5.66614493924853
H          16.94225947769653   -1.29255633265177   -7.09002201239469
H          18.20106542738973   -4.87738036390813   -6.44250945138535
H          19.19628668477154   -4.07117331825965  -10.57096387518245
H          16.98153850611637    0.18934047150150  -12.45951600765940
H          15.43845885785910   -1.54954588787273   -8.82972253966643
H          19.85521835989192   -2.09974380280304  -11.04096154414945
H          18.92241156647248   -0.59070042801162  -13.52693988565003
H          21.21243049553984   -0.62856789035838  -14.16061210254837
H          22.06855852485619   -6.15527739434671  -12.05354944129368
H          22.07382076491804   -5.37468717277359  -10.46051182878549
H          23.62638034421992   -5.77978539700203  -11.25240740971713
