97
 SCF done       -190.884180211291          0.000735143034
C          -6.63747278892668   -2.11674098922177   -9.30594192444077
C          -6.48776918978996   -3.00314020075650   -8.27491683331594
C          -6.02555982403690   -4.32794612091645   -8.43105713716942
N          -5.65984644873683   -5.41258552295901   -8.50244257059578
C          -6.70559228871195   -2.67251490269032   -6.92225977707565
N          -6.83817118923408   -2.44244586122131   -5.80499811117501
C          -6.29002715767376   -2.33351696642816  -10.69872435406166
C          -6.29585717716959   -1.08359189361615  -11.37456139554678
C          -5.98085690283153   -0.96804455152174  -12.70692396627832
C          -5.66041238029117   -2.13542509883252  -13.40682552049223
C          -5.66389050851311   -3.37889945612573  -12.72411950788934
C          -5.97168868340070   -3.49760901818002  -11.37556369323269
S          -5.23616443976962   -4.68100434139390  -13.78743943609927
C          -5.05766407108892   -3.57761036815948  -15.10586800440625
C          -5.30667302779198   -2.29075620261790  -14.77562433914826
C          -6.64264535441674   -0.00949609217480  -10.42389400059851
O          -6.49750389303405    1.17626177098658  -10.56650261923606
C          -7.09316625750944   -0.73563083874181   -9.18810787192113
C          -7.84998712269904   -0.22238579509611   -8.19868921814397
C          -8.39406712978524    1.10714840148871   -8.18030362090987
N          -8.91633014680143    1.68431867321948   -9.23594167541630
C          -9.31324294570545    2.91518918558698   -8.82417809461647
C          -9.01368509222655    3.11906846226451   -7.40103320060406
C          -9.43729438639874    4.45638788003659   -6.97257956910363
O          -9.33084794628667    4.97074587592607   -5.87936137427308
C         -10.01996762380299    5.02240422994025   -8.20839691516858
C          -9.92191180149563    4.04076642172071   -9.31311984841553
N         -10.46521090103813    4.54748184873960  -10.45076520640178
C         -10.87881064627755    5.74440726717089  -10.12881932904753
C         -10.63449429276436    6.10584756441374   -8.74019063398640
C          -8.45083997431458    1.94807333659105   -6.95766847047824
C          -8.00210210696489    1.54374461059230   -5.66988898571938
C          -7.96866316818539    2.39258740233760   -4.62453329986851
S          -7.49276697049062    2.01288475889045   -3.00945754284177
C          -7.52132894309432    0.23483827484538   -3.01380390319136
C          -8.67617289315913   -0.48510536444923   -3.05826690914996
S          -8.39042603247608   -2.17415875267701   -3.01665279776277
C          -6.70013820999029   -1.92582918601133   -2.91543804835171
C          -6.37577655468900   -0.60450943149756   -2.91792116498092
S          -4.70765278634403   -0.01465474499440   -2.84309301647416
C          -4.79124321318593    0.88813710590488   -1.38120802935930
C          -3.73508745873968    1.53432098270099   -0.83730563444496
C          -3.87383306096599    2.21379766205995    0.39712797951644
N          -5.04485363586288    2.28963536595858    1.02536021582674
C          -4.81146113981262    2.95975407569667    2.16264519627756
C          -3.39727269266294    3.36064748912345    2.27411303287667
C          -3.16204822983077    4.05918935929794    3.55067091895665
O          -2.12791285023084    4.54193523526612    3.96868769812295
C          -4.48403993463444    4.02781788970073    4.18610999844397
C          -5.46531729497564    3.36144133094292    3.30565019911249
N          -6.68203722093852    3.31715253753633    3.89372405744407
C          -6.51867184020719    3.89480842995521    5.06318752902549
C          -5.17271342772481    4.35466683957442    5.31281429049345
C          -2.77932316384946    2.87690136706535    1.14734580433267
C          -1.40706370857954    2.90934653982309    0.77203439891508
C          -0.46430777402740    3.48221838791201    1.55799728504695
C           0.92625285548849    3.46452897919648    1.28081576085517
C           1.89878807831249    3.73656286835773    2.19022635303999
C           1.80438204751755    3.93656519674268    3.62487363150884
C           0.90402363491104    3.34506911476785    4.46937028202814
C           0.89183100823958    3.54515587947396    5.86587429468667
N           0.84463763035690    3.67937127121828    7.00457154191424
C          -0.02881737730846    2.36052080504169    4.07537073764756
N          -0.73907888600054    1.49199343244767    3.83365391650539
C           2.98796482840919    4.68685332236031    4.02810026305714
C           3.89433961057400    4.72979698621700    2.93545929068835
C           3.28573794838053    4.06909018367306    1.76595399038579
O           3.77619597249955    3.87801612049764    0.67609041031633
C           5.12916983836058    5.32650766694180    3.02858582955837
C           5.48164672616936    5.91472150386525    4.24672927745387
C           4.56316282733002    5.88057537450788    5.32388895242904
C           3.31698891784750    5.27146726022422    5.23530221423944
S           5.20744157479956    6.67703330495849    6.72424612222024
C           6.67181491978699    7.03734160335404    5.87627471682011
C           6.68487848866437    6.58759119681845    4.60281149931527
H          -5.98647442367464   -0.00564161566303  -13.19414972831664
H          -5.96491661161684   -4.46287760502249  -10.89624321444870
H          -4.77304751253306   -3.96651673778373  -16.06427179050387
H          -5.24573503155929   -1.46934364642543  -15.46608954302649
H          -8.09874351455539   -0.83651409694561   -7.34155993936768
H         -11.35591054679870    6.37153726764450  -10.86198224898708
H         -10.90154472677931    7.03851266510027   -8.28399156181701
H          -7.68902550807171    0.51509183334983   -5.54864730223593
H          -8.23491001662445    3.43527666359788   -4.73075956218196
H          -9.67522653994011   -0.10244393734132   -3.12336759814117
H          -6.03116271768254   -2.76110208291624   -2.87784163700415
H          -5.74431231576666    0.91328408652891   -0.87477245068443
H          -2.77136970966258    1.51840240255838   -1.32297208740189
H          -7.35059386413159    3.99237335797888    5.73907418750978
H          -4.83258676005742    4.84201225331810    6.20498983922722
H          -1.11497923240726    2.39634773344387   -0.13449388948176
H          -0.78213950703063    3.98528089898589    2.46136284080330
H           1.25295632081762    3.27524425528500    0.26384366845081
H           5.80302934081170    5.33791265934659    2.18592453965858
H           2.64590128517378    5.27363898451503    6.07830730171588
H           7.44452355810098    7.57256836894634    6.39330322283100
H           7.50970329319703    6.71900935778426    3.92600681593708
