97
 SCF done       -196.102094936098          0.000426547277
C          -6.91434855180387    6.99979031097177   -6.13112487093755
C          -6.27762349445239    6.86465941956883   -7.33413987534818
C          -6.67552493849760    7.53775719604847   -8.51001053588178
N          -6.96533098180065    8.06025711210342   -9.48901881414776
C          -5.11854483054190    6.08173817661016   -7.53004389674744
N          -4.17173256797805    5.46473370940009   -7.73102119818241
C          -8.05406429239259    7.85245650144761   -5.83609204839783
C          -8.22047263412499    7.92738151211973   -4.42699682467233
C          -9.22220634722292    8.66442738621519   -3.84278822999651
C         -10.11107482776802    9.34109204454176   -4.68356370122554
C          -9.94123096042149    9.25362162611268   -6.08912611588772
C          -8.92053497936788    8.52177469248792   -6.68177965247018
S         -11.15872165467652   10.16180766875666   -6.92679776723207
C         -11.86906627596114   10.64079584518568   -5.42521317659055
C         -11.23054870095264   10.14885809191419   -4.34032914151405
C          -7.17075661886067    7.13076705982586   -3.76238429704293
O          -6.82803112012423    7.17749613671622   -2.61109467729311
C          -6.53959714394516    6.34753527261961   -4.88035736480226
C          -5.85381431809253    5.18904625650363   -4.77339854707205
C          -5.68321297390898    4.40781147794806   -3.58882753124828
N          -6.52979893535522    4.41449345788523   -2.58183679834917
C          -6.09600302283445    3.46504623511836   -1.72390801073867
C          -4.91431652595025    2.76773644735806   -2.25532939997239
C          -4.44979494471007    1.74255619589665   -1.30652358751505
O          -3.54229462132044    0.95036396137407   -1.43394674947659
C          -5.37905029462957    1.91202590302085   -0.17202882627894
C          -6.38169559700298    2.95920095071661   -0.48143281501350
N          -7.23237121309280    3.12660600523666    0.56176529547371
C          -6.82178033450743    2.28840985004241    1.47786123207557
C          -5.65943672633433    1.50472703858523    1.08953833323993
C          -4.61666966642389    3.38147132440225   -3.44654974655211
C          -3.55244195390377    3.15821532876378   -4.36387833431313
C          -2.82220582513296    2.01626648756615   -4.34214354808846
C          -1.71268536026008    1.72375064408382   -5.17306511329940
S          -1.14387889426964    0.08597769494842   -5.27693779536803
C           0.18749078822140    0.51674810221451   -6.32068615004616
C           0.17737925844854    1.89189960123002   -6.54844010600317
C          -0.90033784483701    2.55754777160583   -5.93411796597781
S          -1.00498605491969    4.27749809334417   -6.17019086103798
C           0.47639495517777    4.42398278607844   -7.14734122453178
O           0.88352071269873    5.45947456086822   -7.56704770820155
S           1.30090435382043    2.86885330083003   -7.43482977205291
C           1.04276154581078   -0.50494142433929   -6.77137939501927
C           2.20211574668918   -0.36849459691381   -7.47749792584528
C           2.95619322209100   -1.51977692181872   -7.80192541919249
N           2.50882168003215   -2.74746792924432   -7.53552752589668
C           3.49613346303902   -3.58969681457760   -7.85789350162655
C           4.68688221212271   -2.85684234513384   -8.32771934645545
C           5.77614404823714   -3.79017467426641   -8.67751493538602
O           6.88343701030666   -3.52910936171934   -9.08983452094737
C           5.16571450229762   -5.10090356535244   -8.39831821405569
C           3.78288598918811   -4.93564301312028   -7.89863004553196
N           3.21701143968299   -6.13880691137912   -7.65182270071475
C           4.13700214741319   -7.02178603671286   -7.96659757403511
C           5.37416177771139   -6.44343794018275   -8.44226447668620
C           4.34367763508860   -1.53565489968684   -8.33444079123076
C           5.16163869743522   -0.42434075464199   -8.71323753694899
C           4.75077052588812    0.63474660287591   -9.44767989154735
C           5.66055554731255    1.67698064516645   -9.76554570144402
C           5.61368695258892    2.70263517097337  -10.65701296303397
C           4.67509781378766    3.18126521926668  -11.65719406532738
C           3.31583321198679    3.01613075301834  -11.71745939642463
C           2.49206098214527    3.58132176204480  -12.71767680400077
N           1.75567768018857    3.99782346211821  -13.49319722577043
C           2.50103808843749    2.33515567786619  -10.79635713570195
N           1.75237896029732    1.81371922487850  -10.09727543152742
C           5.42975485466801    4.02652913929820  -12.58248897744434
C           6.73295123206255    4.23969343817352  -12.06562678603705
C           6.88391364869838    3.47815371220800  -10.82043092636848
O           7.83990428533392    3.43860380342601  -10.08006653592103
C           7.67018732807493    5.01666378826792  -12.70315151356727
C           7.31156654247490    5.60558941870060  -13.91845698744363
C           6.01554374863625    5.37260456137392  -14.43945903487257
C           5.06627066071648    4.59176645860049  -13.79105798066305
S           5.79615680226885    6.18034822325055  -15.95959968025287
C           7.40396901588630    6.81299803449887  -15.88350718713126
C           8.08188350792620    6.44017694458053  -14.77591537446106
H          -9.32184587847712    8.70767309987163   -2.76950038435850
H          -8.83124690879285    8.47962186070490   -7.75491993868284
H         -12.73678225155575   11.27118820302289   -5.44704023336413
H         -11.53065056339799   10.34102409630345   -3.32628534816048
H          -5.43093311208691    4.74663361417433   -5.66673381349507
H          -7.33733093826590    2.21583126074524    2.41977791568861
H          -5.16939228261942    0.77269269591619    1.70041752782802
H          -3.35108362717883    3.92436007701890   -5.10030458987639
H          -3.09147466150156    1.23545914700745   -3.64233215297198
H           0.75707541743134   -1.51468477794929   -6.50419289303424
H           2.58140922309708    0.60066615054825   -7.76250867240797
H           3.93654340329827   -8.07385728587592   -7.86024973903803
H           6.24211949918664   -6.99164563689024   -8.75084535971301
H           6.20712198528551   -0.50517387382774   -8.43786794400614
H           3.74315751312721    0.65768565104239   -9.82789033284373
H           6.60924308366572    1.62787983412487   -9.23439662180236
H           8.65089629771989    5.15944872683033  -12.27663726167258
H           4.09947017617802    4.43929444063514  -14.24025101770361
H           7.74825465315984    7.43493901634287  -16.68690597955782
H           9.09224242489961    6.73640560983785  -14.55929173346003
