102
 SCF done       -190.981176486797          0.000920856144
C          -8.63914961670867   -1.67559704503137   -1.80394874208050
C          -8.78359695233547   -2.37261420590749   -0.63981468929812
C          -9.04776061499913   -3.75978024610203   -0.58892416089064
N          -9.28547965336984   -4.87791239188566   -0.48946442357092
C          -8.75999895003510   -1.81927274041015    0.66078613742849
N          -8.77767132136139   -1.45039377231121    1.74663966147590
C          -8.68755278083442   -2.23825534503943   -3.14696946601041
C          -8.69394891031452   -1.18238637834756   -4.09407741653313
C          -8.74203789648188   -1.40232269412721   -5.45060865628813
C          -8.78296218158474   -2.72568182337153   -5.89475850302576
C          -8.75118258607740   -3.77578993468392   -4.94497025404477
C          -8.71135321281668   -3.55372587829359   -3.57417845531716
S          -8.80799471641169   -5.32804665747589   -5.71927919820797
C          -8.91104253111903   -4.57314597880337   -7.27337499979944
C          -8.88128673081406   -3.22316777864962   -7.22555763129140
C          -8.66894514529506    0.10709014675600   -3.38989004058895
O          -8.82721719717451    1.20921286048545   -3.86205995747266
C          -8.48219282765400   -0.23067492951275   -1.94359900929912
C          -8.26045384521081    0.68089995739723   -0.97326361056756
C          -8.08795630124624    2.09497207634592   -1.18101948114433
N          -8.73640046650545    2.95781551376640   -0.43039995559949
C          -8.41311590417269    4.18416998058381   -0.90971396173154
C          -7.47624188047863    4.08099087978548   -2.03925289259133
C          -7.13080591723348    5.41515481939385   -2.54055238933847
O          -6.40465050041405    5.71900856684261   -3.46651265745566
C          -7.88907553309724    6.30673066608643   -1.63968228552185
C          -8.66480134826811    5.50785513467012   -0.66528317638391
N          -9.35052205646539    6.32166608658887    0.17936791473419
C          -9.04771809506824    7.53682203264013   -0.19447108466987
C          -8.13019789914862    7.60169500760691   -1.31982650571431
C          -7.22218670873425    2.74315868335050   -2.20215575780628
C          -6.34659823311013    2.04707538522995   -3.08235968264078
C          -5.82188823343254    2.65383209799592   -4.16949046368095
C          -4.98579866326626    2.13853032466044   -5.20961873635020
C          -4.35814502628031    2.96645019189205   -6.12360000664681
C          -4.31843985421378    4.44265331747484   -6.25914339114652
N          -3.65453084461710    2.17583716000492   -6.99242049173063
C          -3.81178210929361    0.86740220869053   -6.71250295934319
C          -3.09517758216441   -0.17502422786830   -7.47515643756581
C          -4.65638108942924    0.77458583827771   -5.59394279701774
C          -5.10630670355375   -0.38481558994807   -4.94303092176516
C          -5.02397482126590   -1.70605443476906   -5.30500944599388
C          -5.40114310829953   -2.66628858182304   -4.34998305941807
N          -5.72680339017731   -2.29922427269999   -3.09688812770009
C          -5.80928042146778   -3.41964799735591   -2.38261998168765
C          -5.52727588285955   -4.60287096759950   -3.20553927444160
C          -5.60008944731809   -5.83864258530458   -2.39528311159726
O          -5.44014149550606   -6.97913860083026   -2.76865650875100
C          -5.90424708513812   -5.31668390435739   -1.05595316512471
C          -6.03355119808064   -3.85106459607372   -1.08972294795012
N          -6.32968825852179   -3.36633334219214    0.13492624723360
C          -6.38794429275787   -4.42755809142609    0.92057359507395
C          -6.13576728384680   -5.66795959462280    0.24274169444566
C          -5.31128745898216   -4.14171564599131   -4.47669489076679
C          -5.08791413175022   -4.95825478646540   -5.62362225210063
C          -5.51766283758962   -4.70130477571454   -6.88371119949059
C          -5.34641610511222   -5.67395381763921   -7.89983155768914
C          -5.90642034827245   -5.77902316016325   -9.13671548213467
C          -6.79609540345899   -4.94500229915399   -9.91505535628096
C          -6.88193967047542   -3.57576903780554   -9.90910262409521
C          -7.77527856565279   -2.82993112431069  -10.70633438846585
N          -8.49566037172874   -2.15912986427325  -11.29712698800246
C          -6.03595847859295   -2.72183215166937   -9.18592464175000
N          -5.35261956140957   -1.95334766314436   -8.67329491167105
C          -7.47874487434314   -5.81075745824532  -10.87055210866308
C          -6.85966433841418   -7.08744398983523  -10.85627399388541
C          -5.80579801687433   -7.10003236279138   -9.82774340123016
O          -5.03681899573123   -7.99256352925824   -9.55852185145269
C          -7.25194366013220   -8.10721386118291  -11.68875275059340
C          -8.31016404811095   -7.86132254279850  -12.56932280910713
C          -8.93463152622040   -6.58993076758496  -12.56286622143589
C          -8.53457063791065   -5.55580337380010  -11.72518972519438
S         -10.22266019504246   -6.51625075502481  -13.72298573165770
C          -9.91703912968674   -8.14914994954725  -14.20161589635173
C          -8.90166582530734   -8.73177369028377  -13.52677455428362
H          -8.75322225253028   -0.57675722280740   -6.14522258664646
H          -8.70081811107967   -4.38789530604871   -2.89226702010199
H          -8.99730942149237   -5.20145398285352   -8.13927881330114
H          -8.94908636818217   -2.58160551898752   -8.08643444443587
H          -8.25276824131066    0.37656984164061    0.06622545946944
H          -9.47053273231194    8.38482276154803    0.31584823186798
H          -7.75806708130855    8.50180117891647   -1.76808891805914
H          -6.15389291427513    1.01745743107928   -2.82409544494302
H          -6.06800230706991    3.70008171785275   -4.29150946716177
H          -4.87536603725625    4.92651831499769   -5.46322525415838
H          -4.74594332028770    4.74703476519341   -7.21521702069446
H          -3.28888469919349    4.79974358834145   -6.22279829752060
H          -3.08615021421627    2.53355503764542   -7.74574922215697
H          -2.35247551475716    0.27523879439676   -8.13069857730273
H          -3.79375950336971   -0.75006350823689   -8.08271179422501
H          -2.59795202239076   -0.86619403929030   -6.79664693569515
H          -5.58413142091223   -0.23664352914299   -3.98856997775996
H          -4.65864148544585   -2.03248704456790   -6.26412282160935
H          -6.61969116357379   -4.30825386079784    1.96419779894311
H          -6.14222473063899   -6.63962225263228    0.69415183067602
H          -4.62630251519187   -5.91646766895832   -5.41409735233486
H          -6.06531150915102   -3.79451557404912   -7.08798152798231
H          -4.75187404083554   -6.53957263643661   -7.61965544213940
H          -6.75607820029344   -9.06485447521428  -11.66165369015592
H          -9.04630213403726   -4.60796043990207  -11.75217813361027
H         -10.52732638773204   -8.57974760065572  -14.97155380316026
H          -8.57129618458387   -9.74147651363523  -13.68988781669419
