126
 SCF done       -217.804507175149          0.000465945987
C          -6.20640353018898    0.87676622748490   -3.75508705068745
C          -6.27838818828112    2.07252135474019   -4.42394733813152
C          -5.36448841260435    2.47941333391872   -5.41728376565483
N          -4.64785762582205    2.86978427561964   -6.22492230762607
C          -7.29632726810611    3.03087952573327   -4.24876893453798
N          -8.10579092211924    3.84322820827134   -4.17532638265752
C          -5.24755541152555   -0.18589436304609   -4.01888178914286
C          -5.62568482520761   -1.32755186585508   -3.27014227725508
C          -4.92349044644283   -2.50737842593953   -3.31596383835448
C          -3.79325460517177   -2.56282155389318   -4.13737948249455
C          -3.41938069155663   -1.41483892675247   -4.87626384707826
C          -4.13054725652733   -0.22169826501324   -4.83192050158629
S          -1.99032308715407   -1.71047046519040   -5.81611944495491
C          -1.90964151433267   -3.33474431823602   -5.22708775021095
C          -2.90170228809715   -3.64867908367421   -4.36567846069612
C          -6.84015166504956   -1.02901626759063   -2.48681806485421
O          -7.42547983089664   -1.80371238683683   -1.76002841634574
C          -7.13322149232009    0.40303056990571   -2.74175046723624
C          -7.95776792010940    1.21402494183649   -2.01687870228375
C          -8.97231203293818    0.86038135651610   -1.08426031689344
C          -9.68756016395509   -0.32624434357506   -1.09329308260416
S         -10.94945023228892   -0.42450770346223    0.05318030181056
C         -10.55542246339730    1.15116924954352    0.64380167482937
C          -9.48949875104008    1.72436770021892   -0.06571379710553
N          -9.19242766590896    2.94935749452186    0.46957889480418
C          -8.14567345457948    3.86008405815607    0.07585958520265
C          -8.59438547113596    4.82454749732916   -1.01877722396589
C         -10.07946235328019    3.17081022681083    1.49363705664930
C         -10.93499199928528    2.06818394993523    1.63125659702636
S         -12.04485056043037    2.27228012519035    2.93527003585801
C         -11.34495942103892    3.82440002512614    3.27741933439629
C         -10.32602154177421    4.18939064278490    2.45087932980232
C          -9.59765829089190    5.46797859703830    2.55700148863875
C          -9.91542185491050    6.51593459785998    1.74517921541258
C          -9.18332507499413    7.72509732279494    1.83954568892459
C          -9.27979542680985    8.90835021498624    1.12902815279291
C         -10.21929369591980    9.16378845103920   -0.00109834171656
C         -10.90671932779317   10.54710740629029    0.07330204811724
N         -12.22204414118790   10.61349109950858   -0.52775243437366
C          -9.52211660903252    8.94241468581551   -1.37659990046177
N          -8.35315456171550    9.74021432182552   -1.65280008728989
C          -8.26905082160398    9.79704910404226    1.66384716768952
C          -7.92593687265989   11.06482421487804    1.36804070129155
C          -6.82412743734992   11.77583684822640    2.07015377235363
C          -6.13757655954731   10.97175316004939    3.13117492241378
C          -6.50287852937889    9.71283236733840    3.43384958793244
C          -7.55511192763329    9.07948417844959    2.73249164004221
C          -8.12092930923396    7.82381084569670    2.83027540906662
C          -7.83878636348620    6.72167113050037    3.66974533612571
C          -8.55578564477937    5.57692109925630    3.52890984394628
C          -7.30587358746235   13.07494480370370    2.67919567917099
C          -8.53630732919500   13.23618262216777    3.16122468057101
C          -9.03133766474923   14.44133070671325    3.79779959481537
C          -8.23430836843530   15.40341484257227    4.36431701537189
S          -9.07279885026114   16.72800717794247    5.08599942382590
C         -10.57599898877577   16.01714379144314    4.63301484005398
C         -10.40217046839454   14.80080253117199    3.95401998031045
N         -11.62915565625441   14.29808264971143    3.59828996964340
C         -11.90149376533586   13.10024821368992    2.84700453469442
C         -12.03481435062477   11.87675509105932    3.75279180967480
C         -12.57521172968850   15.16456795796134    4.06887868692044
C         -11.95451618448272   16.25202088764042    4.69882612684086
S         -13.10509896021091   17.41405387343960    5.24955238687005
C         -14.38252919193604   16.47307335715055    4.59385357126867
C         -13.99185782577562   15.28868017424272    4.00290019282816
C         -14.90345163584929   14.30644080285215    3.49711272110394
C         -16.10990078422610   14.50848663730807    2.91551589629375
C         -16.74494855356252   15.70171468026564    2.38959869186079
C         -16.10095969916671   16.78035430276915    1.84388517276223
C         -16.76383284712787   17.88709011416640    1.27752969341016
N         -17.26324564740499   18.81651616357831    0.82519270650757
C         -14.69974829303703   16.84747422538334    1.69909668137649
N         -13.57145221517090   16.90940936179647    1.49740488874578
C         -18.17339802774317   15.42688208471277    2.30705754704525
C         -18.38492041999321   14.04218973838850    2.54010781272940
C         -17.09593813827266   13.39572604526248    2.84518399650780
O         -16.87543491519962   12.22230068084109    3.04625454750150
C         -19.63356039583996   13.47087918822644    2.48515072341951
C         -20.72118949744095   14.30180501148989    2.20013934042642
C         -20.50001451490284   15.68349238093275    1.98276798301828
C         -19.23729797587641   16.26237285436018    2.02791532700076
S         -21.98826533169963   16.51478135414652    1.65897985847946
C         -22.87476260616378   15.03706774861427    1.80888334439592
C         -22.10035737934841   13.96673249215540    2.09011957634166
H          -5.23882444189551   -3.36138007829439   -2.73674215416513
H          -3.80410306392606    0.62737207200385   -5.40904888569067
H          -1.11067769248989   -3.96387409557279   -5.56842777152189
H          -3.01230435873828   -4.61092037134537   -3.89934427059008
H          -7.82608189787872    2.27943643214912   -2.15311922172297
H          -9.55319223162241   -1.14288092468900   -1.77205163143688
H          -7.28228775104723    3.27493463344210   -0.25461425655610
H          -7.85361944718961    4.42980868422840    0.96284027808523
H          -7.77904329707135    5.49715765277366   -1.27150168099720
H          -9.43514173380833    5.41558844301732   -0.66675112190835
H          -8.89630322939240    4.29798872248524   -1.92090179782584
H         -11.74759300833174    4.39783829402107    4.08888172549333
H         -10.72813544076022    6.42442678882753    1.03792757576688
H         -11.01452348527360    8.40979621953534    0.06022296910534
H         -10.29825100722534   11.30669954369998   -0.42450897592232
H         -11.01386315589545   10.82996390294599    1.12332522512826
H         -12.17780841164337   10.38352277488765   -1.51461839856792
H         -12.85328617747423    9.95448736547365   -0.08437771941362
H         -10.24867456994476    9.13509247666983   -2.17208733808795
H          -9.22128523734850    7.89344455131020   -1.44204192644337
H          -8.57466924072411   10.72894861867493   -1.66549207110441
H          -7.63515725662263    9.58052770316292   -0.95516375693119
H          -8.43728730172318   11.64417227129687    0.61282021088550
H          -6.07516591991682   12.04142793594774    1.30652760406076
H          -5.33755561847173   11.46802707199810    3.65864625436271
H          -5.99299492664298    9.16558062314069    4.21378991504728
H          -7.05655121511729    6.80057700348184    4.41044520750046
H          -8.35709832822596    4.71765881063471    4.15324730302744
H          -6.57635172477600   13.86817961486575    2.74083913395153
H          -9.23473011466918   12.41526390112241    3.08272817827397
H          -7.16460558228009   15.39567959995018    4.42600538623683
H         -11.09616895401467   12.95765661164130    2.12282119853777
H         -12.82745287970414   13.25655848435131    2.28652602233738
H         -11.10162857488760   11.67766986584078    4.27600781305420
H         -12.29820520530448   11.00319624730404    3.16263765293040
H         -12.81067664639830   12.03609884392048    4.49819698623916
H         -15.39171683728684   16.80563953371414    4.74251255420043
H         -14.65069787629440   13.26750047688223    3.68076271613828
H         -19.76638853468685   12.41399652862962    2.65698081455689
H         -19.11417450716214   17.31985092543195    1.86037690754152
H         -23.93875174054470   15.06258160745591    1.67507652367963
H         -22.47672403640129   12.96803764260355    2.21866804203615
