100
 SCF done       -200.734134445697          0.000513662690
C          -6.23138256332703   -4.41085970405527   -3.02833659651344
C          -4.97673935481830   -4.70579242416682   -3.48721102884057
C          -4.27356644564190   -5.87999334997146   -3.14082588825050
N          -3.66756804907289   -6.81700455252610   -2.87640271219483
C          -4.28914865408871   -3.90624333137195   -4.42572658724883
N          -3.72266155776155   -3.29821461951043   -5.21830159535069
C          -7.09290263346015   -5.24786643514839   -2.21360417712477
C          -8.41777099172960   -4.73613593486012   -2.27657660935010
C          -9.46550979163268   -5.33204789595953   -1.61690742129902
C          -9.19360376678942   -6.46944260916236   -0.85031732387574
C          -7.86654035929266   -6.96739065111612   -0.78923390544227
C          -6.80765780414695   -6.37542045038092   -1.46505438855181
S          -7.76924744945036   -8.37508415496909    0.21907270975339
C          -9.46521887775165   -8.29064720677114    0.54216866853339
C         -10.08509410700145   -7.25840891872492   -0.07195053842185
C          -8.45108953636867   -3.54466110157596   -3.14885329589103
O          -9.41294895704789   -3.00892217623446   -3.63105444399950
C          -7.00163519994045   -3.22153095862236   -3.37773415866717
C          -6.47034887644254   -2.03157071054902   -3.72107422685855
C          -7.17158646538140   -0.81235545375203   -3.99042183002115
N          -8.27039501890449   -0.43300798427307   -3.38312341673940
C          -8.57384268912920    0.78436974546784   -3.89468830453106
C          -7.57529062447583    1.20970761039787   -4.88833492181772
C          -7.93493254189085    2.52284030133881   -5.45227235950296
O          -7.35463953647703    3.16697982516691   -6.29543872903522
C          -9.18631214932751    2.84620181551448   -4.73631492320481
C          -9.53275662573793    1.75712640973598   -3.79058214747106
N         -10.68408528966015    2.04662007578518   -3.13253696415234
C         -11.06499354863515    3.20555466973152   -3.60133875283874
C         -10.17603881705841    3.76175519819295   -4.61157895050229
C          -6.65538165598894    0.19375785121657   -4.95990363038305
C          -5.47401579905669    0.03339335896821   -5.73322847737436
C          -4.93913011349209    1.02569984275488   -6.48852590134596
C          -3.73818627052266    0.90490537553298   -7.25232866103827
C          -3.17656758430247   -0.28074143024091   -7.62369727991237
C          -2.01142577068818   -0.35679167607997   -8.42773486957947
C          -1.23938379555624    0.73577408515035   -8.67860269100271
C          -1.60581200492168    2.05372992454788   -8.02824589748918
C          -3.11331605447827    2.19703846320013   -7.75197315718966
N          -3.40156925308208    3.25031122465197   -6.80209292895556
C          -2.53841480799065    3.51914610513210   -5.92854258608132
C          -1.22748778313395    2.83950223937752   -5.87643829448476
N          -0.79605769421013    2.14664906885457   -6.83197137094709
F          -0.51477210051450    2.94240246683588   -4.76033394789947
F          -2.79462797078419    4.45462019904984   -5.02353572372287
C          -0.08751441969286    0.76147692301723   -9.51530007985631
N           0.28846406982914    1.91127706851172  -10.06493422714466
C           1.31666264911380    1.62175483699630  -10.87884673409475
C           1.61751832632439    0.18123822686523  -10.86819099873618
C           2.74561772808663   -0.11087423878628  -11.77253851417348
O           3.20991092455816   -1.18900459835667  -12.08133090835459
C           3.13760008234327    1.22496037987362  -12.24307290492418
C           2.22502374795060    2.25257974585682  -11.69519025641148
N           2.59124668774811    3.48709864598896  -12.11139255037581
C           3.65954847133372    3.29750034242715  -12.84907724840472
C           4.06309580530631    1.91058250368633  -12.96253008744976
C           0.76050463441805   -0.37775020877858   -9.95092414536851
C           0.75491134874110   -1.70121098950023   -9.42129229487958
C           1.48909413430019   -2.69861405977485   -9.96896846046898
C           1.54027137098290   -4.02252538402126   -9.45923803939415
C           2.45129678257548   -4.95877435362361   -9.83091167653238
C           3.65342988490455   -4.81681488906587  -10.63200646922598
C           4.47069180972176   -3.71998047536839  -10.66454965971258
C           5.65657060636317   -3.64970207197407  -11.42476352654599
N           6.62538659734787   -3.55561623889541  -12.03234436970563
C           4.29209517585974   -2.58610237779254   -9.84106132767739
N           4.23680737219093   -1.68893019408250   -9.12794144860775
C           3.94793740092548   -6.12946482459924  -11.19261212207758
C           3.11429239719375   -7.09077781818089  -10.56105080224534
C           2.20523141745016   -6.41230925110914   -9.61837769280647
O           1.38918474462790   -6.90950637491213   -8.87702684926440
C           3.19026875449041   -8.43206927816883  -10.85262202927634
C           4.11862553641364   -8.84107414793436  -11.81435467680145
C           4.93486358198206   -7.87184571796443  -12.44693638182157
C           4.86697986315175   -6.51606418427303  -12.14802713367914
S           5.99592002047346   -8.60490349112190  -13.60730993459134
C           5.35546333395684  -10.16990252565094  -13.24140575572695
C           4.39053572392847  -10.15285647935237  -12.29659083956423
H         -10.46347121716478   -4.92850716648047   -1.68687504445532
H          -5.81272565923942   -6.78298222909786   -1.38950483748237
H          -9.90185686975695   -9.03075850279816    1.18432264998528
H         -11.13577152357570   -7.04928054629515    0.01458988331757
H          -5.39295547309695   -1.95374445892298   -3.80396848402558
H         -11.96439819603175    3.67125551030899   -3.23720594410517
H         -10.31494865471439    4.69768596339154   -5.11534975485961
H          -4.97754272413883   -0.92570501747347   -5.67249392181272
H          -5.41723326095382    1.99713337061543   -6.50169897244058
H          -3.65105843283821   -1.21100956999021   -7.35169348295507
H          -1.77852370203499   -1.31027364954690   -8.87542882439856
H          -1.25617910132285    2.85289843743394   -8.69634408838145
H          -3.63452703424804    2.47892133455027   -8.67723797998488
H           4.15368223425466    4.13369247918972  -13.31262791714376
H           4.91230187181936    1.54909441568612  -13.50770507139601
H           0.21061870500835   -1.87530820616379   -8.50382731234348
H           2.05573253385252   -2.49309374386386  -10.86711872984763
H           0.75767943636015   -4.34808352045638   -8.78251314558194
H           2.55116854280391   -9.14383543294453  -10.35340025206230
H           5.50193473361292   -5.80981143471631  -12.65728751563194
H           5.74780430530466  -11.01918146347977  -13.76623140072598
H           3.87855986457532  -11.02926319515701  -11.94250946977761
