112
 SCF done       -199.208346028828          0.000635252583
C          -8.02492996992985   14.98898346613993    3.51906927484555
C          -7.99881929478881   15.25561551207642    4.86574851951424
C          -8.41245798054154   16.47642526229700    5.43867851469587
N          -8.72979481476435   17.44251929515658    5.97224398258502
C          -7.59102223265451   14.36427994719227    5.87929855543761
N          -7.28860456374677   13.70120649796982    6.76778700846477
C          -8.50881551474188   15.90433809331454    2.49362446276819
C          -8.48968513907257   15.23689083960971    1.24484450173165
C          -8.88929747947858   15.83956689394158    0.07688013160689
C          -9.32685635814351   17.16594775357217    0.14184364950776
C          -9.33919204406359   17.82639368473380    1.39354136695071
C          -8.93696796393683   17.21634022643948    2.57553508456219
S          -9.90865329163862   19.45879638087105    1.23743386190903
C         -10.12180556536519   19.24681722439457   -0.46580982581123
C          -9.78471355333953   18.01456617799845   -0.90511643694455
C          -7.97686652960539   13.86333523482996    1.42078778069624
O          -7.83862649705727   13.04088321185873    0.54320737657437
C          -7.64165866033032   13.74988524767826    2.86603164142662
C          -6.98682861379430   12.72167190217393    3.48896067973669
C          -6.61124287659647   11.46053022207308    2.99040156784430
O          -6.98578350667670   10.99401153268701    1.78794606636588
C          -6.47118959250648    9.76300363871152    1.61416240184602
C          -5.73173633321353    9.40736605415971    2.73519426628350
C          -5.81927291284774   10.48201801327704    3.63080362715162
C          -5.20167873582636   10.53565682109756    4.94999925190361
O          -4.48290544422203    9.67662279962625    5.39406760102182
C          -6.77152829032624    9.07390714741168    0.40613009059455
C          -6.30482361122212    7.84000008390003    0.11196900199054
C          -6.59671667872345    7.06352867798069   -1.06247061458306
C          -7.45353623034116    7.48807179581586   -2.05504548477214
C          -7.73985656673404    6.65080958783053   -3.15043901129142
C          -8.58489726502408    6.83214841291682   -4.23685275632016
C          -9.37748178213202    8.06073935405328   -4.53779665818470
C          -9.06211927444043    8.60799145915351   -5.93881838664484
N          -7.62304475409807    8.64613747509173   -6.13574022986040
C         -10.88581622864621    7.81767954853860   -4.35457944384610
N         -11.16317185908157    7.62425217853465   -2.94323743237721
C          -8.55053169531952    5.60600437978042   -4.99995725562059
C          -9.23738976383455    5.19602401848241   -6.08194708885721
C          -9.07272598822212    3.82671757891596   -6.65180884347050
C          -8.02330389957400    2.99272683325821   -5.98056812637173
C          -7.35162453015673    3.41133314729104   -4.89319399516992
C          -7.60061978781518    4.69082355496137   -4.34256031145495
C          -7.12166643570580    5.33243358200750   -3.22180010031022
C          -6.22014194898814    4.93313801957141   -2.20595138827436
C          -5.97388785278240    5.77120210278381   -1.17081498022518
C          -8.77128911875105    3.91569099534052   -8.12052905628959
C          -9.50290623386109    3.30441431631899   -9.05953313529550
C          -9.22807581179513    3.35623485192971  -10.46300873138232
O          -8.18965871514630    4.06263132296859  -10.93125206883702
C          -8.17108045610757    3.94963344450166  -12.28867733265244
C          -9.21782950324346    3.14884447366773  -12.69658250987468
C          -9.90777541703669    2.75724481828183  -11.52893248896556
C         -11.07733019065422    1.89623051398656  -11.47792096349299
O         -11.58755044887542    1.36876375751005  -12.43286104300179
C          -7.15602177563744    4.62954212499519  -13.01337512717713
C          -7.06331789001349    4.62787936631423  -14.36546553366473
C          -6.04169404054780    5.31325237641141  -15.06531113013628
C          -5.95851663275326    5.50665889832453  -16.41005479007851
C          -6.91472919752368    5.27690573521033  -17.47309786636426
C          -8.27889509824510    5.37232299320534  -17.37654475364279
C          -9.15484491519011    5.20060745741652  -18.46866865116576
N          -9.90954706522403    5.05239086371685  -19.32066074199837
C          -8.96353693027121    5.77088798571784  -16.20903348002797
N          -9.56767070960866    6.14006191834642  -15.30535938366421
C          -6.15886205465757    5.16522834017289  -18.71542437438006
C          -4.81667940806934    5.55629605768373  -18.46749121060273
C          -4.65568882398957    5.86756124011254  -17.03518480793928
O          -3.66983548355367    6.27721288650951  -16.46578336243372
C          -3.86735668056319    5.59443948468482  -19.46034641082648
C          -4.25455701546208    5.21965324102752  -20.75068191286699
C          -5.59201911089285    4.81690324936597  -20.98319632480813
C          -6.55640443008906    4.78629097251014  -19.98258425881508
S          -5.83884505860612    4.38508028199934  -22.64523466284757
C          -4.18675096189181    4.74490265300064  -23.00937088823435
C          -3.47583424497584    5.16711752210373  -21.94114473522223
H          -8.86311120927923   15.30238941295144   -0.85854498545243
H          -8.96066031035873   17.76496410239485    3.50198114212543
H         -10.49198988729470   20.07245209116954   -1.04203173637637
H          -9.85110447175946   17.70235576372026   -1.93166332058501
H          -6.69081035200936   12.87560631449456    4.51712884851188
H          -5.19947356570425    8.49517415268954    2.90757983047124
H          -5.44464611414657   11.43921124806791    5.53949698613891
H          -7.41581327551306    9.61830157003468   -0.26794954244693
H          -5.65004249836182    7.36263307252712    0.82962675469636
H          -7.93523182212767    8.45058481108095   -1.98678712336435
H          -9.09677745345599    8.82639586991954   -3.80810373343505
H          -9.54813276667440    9.59396648235577   -6.04287702328353
H          -9.47834120826688    7.95327070031856   -6.70824388452037
H          -7.18608768704061    9.21680916521797   -5.41944414017097
H          -7.39923743811789    9.05325997755937   -7.03701375335430
H         -11.20117849317702    6.96986337480241   -4.98507066450145
H         -11.43570824579927    8.70540088954366   -4.68162559559384
H         -10.66175077051254    6.81226167163641   -2.59734992347515
H         -12.15348948757420    7.47503468138512   -2.78736399908614
H          -9.95505883208853    5.82522630256153   -6.58827488812911
H         -10.03984735199667    3.30980224692097   -6.54113949523908
H          -7.84598054098725    2.02148779537500   -6.41626738291915
H          -6.61871295479533    2.77290834714757   -4.42142547209896
H          -5.74794610522317    3.96344449510070   -2.26256515056515
H          -5.29457191411339    5.47533637434229   -0.38440021177938
H          -7.89757082464841    4.49084100078691   -8.38973394934047
H         -10.37168454984661    2.72331950177915   -8.78320129726286
H          -9.48273490580462    2.87335475288086  -13.69568385427327
H         -11.48290612917106    1.74247188519758  -10.45814712019171
H          -6.45294261230297    5.19923522167414  -12.42091740392290
H          -7.78474971839982    4.06441664201747  -14.93789090023278
H          -5.19060474360701    5.66224514791406  -14.49016842847245
H          -2.85600650260563    5.90410930878330  -19.24729588056686
H          -7.56136337084607    4.46649196057101  -20.20389599576358
H          -3.84470118914144    4.61465034771884  -24.01769120011862
H          -2.43546736140033    5.43501830604831  -21.97791566652609
