103
 SCF done       -196.973805655212          0.000947856954
C         -10.11164546190575    4.66360204974441   -1.25259307817118
C          -9.91180961100185    5.09981841466629   -2.53488477044412
C         -10.88415330241889    5.79397560720404   -3.28787359284388
N         -11.64101007841461    6.35587556019393   -3.94108263990378
C          -8.69385330885748    4.97229137147842   -3.23403556404399
N          -7.72011631665774    4.91565242829925   -3.84120055108948
C         -11.29232477551084    4.86925738227268   -0.43372242641659
C         -10.97747359185019    4.54353523940958    0.91314089666438
C         -11.89974030147600    4.64130586750858    1.92652518448237
C         -13.19208313634823    5.06161730016579    1.59615863365441
C         -13.49716315307794    5.37940030070307    0.24757747441766
C         -12.56362411527279    5.29421338242253   -0.77655718910886
S         -15.15248590040351    5.86849319454405    0.07573890562778
C         -15.41766479224622    5.65025189245451    1.76956456458839
C         -14.32277261092580    5.23023625017005    2.44209488809074
C          -9.56201197209888    4.12915782621850    1.00687766667233
O          -8.88800612986596    4.03499663176626    1.99693740706853
C          -9.13491992376041    3.96404927385496   -0.42459400620277
C          -8.12479678792121    3.20800831490613   -0.90612913422891
C          -7.23077079315158    2.36462731995943   -0.17752141476827
N          -7.49682185944066    1.83237050233630    0.99474330067128
C          -6.45258345656009    1.02044727185403    1.27847142894141
C          -5.46912446375526    1.01394178042607    0.18453653460019
C          -4.34536571457132    0.12051684383204    0.50559782939625
O          -3.38369338962453   -0.15891547123006   -0.17518481052430
C          -4.69609596894717   -0.36297496476390    1.85720098961538
C          -6.00043113831042    0.20050037521541    2.28026642648422
N          -6.32832946643871   -0.23766158478308    3.52225377634069
C          -5.33387631730858   -1.00215566169994    3.88992689737821
C          -4.27372467471332   -1.11860732887900    2.89872461262858
C          -5.94384381054841    1.89138830772693   -0.75684860641672
C          -5.41591276652888    2.31149074702231   -2.00922262867759
C          -4.41228212571240    1.65111549198134   -2.63587691944060
C          -3.87054088327544    1.98104616515308   -3.90800750122785
S          -3.13360762650401    0.69777829140779   -4.81221776928752
C          -2.78605922375280    1.75884435870446   -6.14466109575555
C          -3.19622112812911    3.06733547575080   -5.85589033326305
C          -3.82464274411665    3.18331599111286   -4.60884965993478
C          -4.32538990067244    4.49244836921890   -4.08939385217794
C          -3.68039501418156    5.65424194092813   -4.83943329872422
C          -3.83168541737393    5.43223354863674   -6.34889222419531
C          -3.40354912757502    6.67960336958326   -7.07847383132847
O          -2.47505810953542    6.77269734894814   -7.82622152718737
C          -3.01399042846221    4.21684276184985   -6.78091756056107
C          -2.16292644253652    1.32826221205912   -7.33819408205124
N          -1.63663767762360    2.22763847604555   -8.16602663837101
C          -1.13058369147255    1.53834543354574   -9.19963904326498
C          -1.38808271308891    0.09712952053426   -9.06138238608801
C          -0.83931188476704   -0.63093433497281  -10.22215029386261
O          -0.92627746895433   -1.81317740845067  -10.48715193783741
C          -0.19357597977274    0.43480431983488  -10.99813415344994
C          -0.41165530292526    1.74675205284508  -10.35417041467433
N           0.17471962298106    2.73305674974265  -11.06968549568741
C           0.74213360790672    2.12829001278967  -12.08779642978418
C           0.55470837499394    0.69393488349652  -12.10312352754307
C          -2.03598252972426   -0.06148141423846   -7.85960912874953
C          -2.53970435590869   -1.25311540547094   -7.26795060599402
C          -2.48022568509006   -2.45194774731406   -7.89731177193423
C          -3.01944394023441   -3.64731621474212   -7.36149447321539
C          -2.87346268536022   -4.88051861731193   -7.91459386630197
C          -2.02638131314345   -5.31779093224400   -9.00873474116593
C          -0.77875349679531   -4.84010523534521   -9.30454114914661
C           0.02405908178955   -5.34673556011514  -10.34772357083096
N           0.70624477085894   -5.73249311865265  -11.18587122557916
C          -0.09913321796161   -3.87939804392142   -8.52249855055494
N           0.52174587660008   -3.16650794023536   -7.87283777123435
C          -2.65379964532836   -6.50289942678860   -9.58173674128513
C          -3.69957944496631   -6.92628652633306   -8.71902135048596
C          -3.81812667993077   -5.98457297914904   -7.59025476874777
O          -4.56197954323750   -6.04866800363415   -6.63815048189372
C          -4.46255070210954   -8.03922393950609   -8.98130608788143
C          -4.19081953447438   -8.75826900151601  -10.14885936875823
C          -3.15248607723401   -8.32083308020249  -11.00658880525713
C          -2.37281444336658   -7.20136039859644  -10.73929185118354
S          -3.00818130789677   -9.35201745876848  -12.39442245514785
C          -4.30863822744370  -10.34148945569042  -11.82565115777441
C          -4.83322865550280   -9.92470950900304  -10.65303547727766
H         -11.63323748844530    4.39249863270210    2.94176603240910
H         -12.83886234592780    5.54028408125987   -1.78908980060432
H         -16.39426247421271    5.85159793574873    2.16524626169812
H         -14.30172351088291    5.04106112622986    3.49988473924524
H          -7.98043774996289    3.18036483814123   -1.97925677425461
H          -5.34651910276527   -1.48828510852238    4.85008860485918
H          -3.37620207110231   -1.69378050191543    3.01201733998042
H          -5.88745520829182    3.15912224488544   -2.48242719183174
H          -4.01323391059158    0.75559905897927   -2.17504270358653
H          -4.11290273061787    4.57130776016531   -3.02056440834803
H          -5.41026431513342    4.54616472267744   -4.22118013629309
H          -2.61865247810411    5.71647429591726   -4.59299372122364
H          -4.15696870836582    6.58914690067115   -4.54050291135468
H          -4.89511979366311    5.27551080236324   -6.56501138113960
H          -4.03887040889780    7.55681752048878   -6.83748272875866
H          -1.95307564008466    4.48271408585087   -6.81647864280304
H          -3.26437096655417    3.91868737510037   -7.80085663780101
H           1.28443331319594    2.69772541827880  -12.82247204090124
H           0.93900104783132    0.01990094531714  -12.84279189532311
H          -2.97607020941773   -1.19552487030474   -6.28164639378126
H          -2.04039699941331   -2.50116936632985   -8.88309424438565
H          -3.67683147203479   -3.57616262261976   -6.50171283285637
H          -5.24873411881854   -8.34253908875758   -8.30731301662245
H          -1.59739710754463   -6.89770707444188  -11.42323005805943
H          -4.60566906798840  -11.18614350572256  -12.41641213999342
H          -5.64778435218580  -10.41345705817761  -10.14975494597055
