115
 SCF done       -213.151448565031          0.000944075968
C          -3.89412124449949   -1.15458005861477    0.49801717238961
C          -2.78662848352975   -1.14090215254963   -0.30630956390037
C          -1.51966958535583   -1.62338417049612    0.08661046828507
N          -0.47228860282821   -2.01595113900287    0.34201814510559
C          -2.78341789512697   -0.71443242807590   -1.65044042724101
N          -2.71996888514809   -0.39548585460442   -2.75244637669783
C          -3.98033303765833   -1.67602829137932    1.84977297730107
C          -5.34925482679100   -1.78768338041725    2.21292408748018
C          -5.74579802709399   -2.25798807989536    3.44134388136931
C          -4.75116544725181   -2.61910555121728    4.35585253265776
C          -3.38764034342222   -2.49836975338317    3.98466816747244
C          -2.98384976549713   -2.03449600272193    2.73998052926272
S          -2.33844020517754   -2.99664120205907    5.27320579591192
C          -3.70029933536078   -3.35591723536657    6.27510495433234
C          -4.89060411156065   -3.11663586031234    5.68106442753998
C          -6.19878121122941   -1.35210290997270    1.08551573856847
O          -7.37989935762445   -1.52863905772152    0.94247964485837
C          -5.23664375156594   -0.73491321706569    0.11271263021603
C          -5.53363091763109    0.11125669997594   -0.89403910745984
C          -6.82690873054798    0.60043104771549   -1.26935408740558
N          -7.77852784452909    0.93213179048489   -0.42813238087100
C          -8.79966381651025    1.39455311681698   -1.19028939801170
C          -8.45920828547006    1.36054040804479   -2.61594262590358
C          -9.57606510869830    1.86499740587155   -3.42752750006789
O          -9.63584324743253    1.99378018502273   -4.63186428758487
C         -10.59523351458312    2.18425585053584   -2.40839178533221
C         -10.07441518283000    1.88917782924620   -1.05447261289883
N         -11.00297446166714    2.18354769925232   -0.11175981580322
C         -12.04090427907506    2.62363532505422   -0.77756373939337
C         -11.85521332496806    2.64805629551182   -2.21839296004018
C          -7.18192557936897    0.85423338656369   -2.68951142921234
C          -6.33639651294256    0.56618487716496   -3.78921597074863
C          -6.65936045608934    0.87336326503521   -5.07461914235600
C          -5.85578185460761    0.62097753889730   -6.20915606434759
S          -6.10033606403021    1.60221961211884   -7.60828904330697
C          -4.81411544060802    0.84856907012515   -8.50221364990399
C          -4.20036331823047   -0.15536850560016   -7.71446355318329
C          -4.81000327701583   -0.30429684726586   -6.43102670991933
C          -4.35617032320757   -1.31783754333434   -5.57523406863443
C          -3.28420288111069   -2.10729778336300   -5.91827827592344
S          -2.77332494313506   -3.30774763056434   -4.70833813146292
C          -1.06520385306390   -2.72506081785084   -4.35819680352841
C          -0.46933297677419   -3.56485163841818   -3.24830260318843
C          -2.65267416059885   -1.93289593572798   -7.17099964468895
S          -1.27352659867845   -2.89724647633076   -7.74121770650933
C          -1.94660553283829   -4.60019684659259   -7.68292674277275
C          -3.12518827866017   -4.76482585274648   -8.61974517129813
C          -3.10192453251117   -0.96080966701933   -8.03687302212762
C          -4.58429461426847    1.31018639020811   -9.80606329010527
C          -3.86688616482000    0.71420815062102  -10.80842242063638
C          -3.71945159020356    1.34309257397010  -12.05950007640932
N          -4.16761098889718    2.58160234664569  -12.28724114425417
C          -3.84288960565551    2.86535703747944  -13.55175779966353
C          -3.16274864731145    1.73393928613942  -14.20667076297812
C          -2.81141877502400    2.08112616891745  -15.59619726540926
O          -2.28422294643006    1.38196854502829  -16.43964306263086
C          -3.27380270687000    3.46799161702685  -15.71111588275802
C          -3.91124104354232    3.90761543438186  -14.45436588705712
N          -4.33658320970381    5.18505144196352  -14.55452476207723
C          -4.00029782070313    5.56436775773347  -15.76938052812636
C          -3.33102953969793    4.54540217368925  -16.54138629265818
C          -3.06696682216495    0.75037974312344  -13.25256042221229
C          -2.48708647730482   -0.54635709141531  -13.33541322904701
C          -1.94854930919336   -1.01664841346755  -14.48602915273038
C          -1.35596914153804   -2.29547255696014  -14.63055132361964
C          -0.63623505411551   -2.69369440535630  -15.71294969450588
C          -0.14937766506235   -1.92088204778341  -16.84063345761572
C           0.26030321943227   -0.61557335286372  -16.80984136488056
C           0.77932299576404    0.06802821616994  -17.92914700895372
N           1.21484306954116    0.65833295310234  -18.81157905920425
C           0.34070712041686    0.15632851444594  -15.62947165762852
N           0.50554090591989    0.79732249101436  -14.69202619074360
C           0.04274904956630   -2.85540661640612  -17.94321295098822
C          -0.07614574851690   -4.17957552803396  -17.44354290747755
C          -0.41705104435579   -4.13495843257657  -16.00924646043058
O          -0.55283190357816   -5.06269971505317  -15.24352750989955
C           0.09160542157383   -5.28380475269729  -18.24490365135091
C           0.37687116100423   -5.07378709977565  -19.59721871138285
C           0.47938862288777   -3.74903333818093  -20.08651698660169
C           0.31963774114108   -2.63032530731724  -19.27708936556625
S           0.82279675600637   -3.73221386931058  -21.78712849409795
C           0.83034835713395   -5.46189865830195  -21.82794534252257
C           0.58651688087591   -6.03288500115936  -20.62859596491137
H          -6.79225530720316   -2.33800978324536    3.69079573319807
H          -1.93614369673107   -1.95311036626841    2.50033353698955
H          -3.52332587141045   -3.72959736375743    7.26497012085346
H          -5.84236863132119   -3.28068704057701    6.15267370226081
H          -4.72457368176850    0.48544121779025   -1.50983674173482
H         -12.93019168372227    2.93329001249209   -0.25658611072239
H         -12.58325137519232    2.97305872568197   -2.93507556179383
H          -5.37554225055293    0.12739263992932   -3.56606613391274
H          -7.58065431213630    1.41471932241846   -5.25815236775176
H          -4.83621005550258   -1.49903186750100   -4.62905508174109
H          -1.15642542921094   -1.67956931826970   -4.06485657137574
H          -0.48254373265912   -2.80663536109536   -5.27439531806480
H          -1.07316791742614   -3.49861653846551   -2.34551978916142
H           0.53134949908407   -3.20670155874754   -3.01811041477629
H          -0.40758044331564   -4.60950190139344   -3.54565258673399
H          -2.21477191173215   -4.83275326995434   -6.65393574418750
H          -1.10442402058689   -5.21932562380821   -7.98975767982177
H          -3.95467938540099   -4.13051437054866   -8.31081019202373
H          -3.45954929730990   -5.79998485649718   -8.60554902414977
H          -2.84600084696961   -4.50451809914543   -9.63848814799069
H          -2.58176534722860   -0.83627460822503   -8.97073065317475
H          -5.07181690516542    2.23966072409112  -10.07553929875601
H          -3.42997154745860   -0.26286503798774  -10.68357735635726
H          -4.23107562203977    6.55947341423803  -16.10815189287852
H          -2.97310921435753    4.65378117525223  -17.54603629684463
H          -2.45121073671904   -1.14946351393167  -12.43782249907356
H          -1.99270930816035   -0.39002298202455  -15.36595433359847
H          -1.54723254675847   -3.04665356505323  -13.87180847743047
H           0.00287093914928   -6.28013020977681  -17.84014373123875
H           0.39807448313255   -1.63859346194421  -19.69124017587813
H           1.01918850878354   -5.95110546946935  -22.76373063703360
H           0.55166659221458   -7.09446522324374  -20.46278695122751
