122
 SCF done       -219.787513517465          0.000782168616
C          -3.67803181831568   -4.49941973486200   -8.18014195521273
C          -2.59956765173786   -3.65855347188408   -8.07744169130230
C          -1.30980085842540   -3.96878551822825   -8.55901159378969
N          -0.23737882632367   -4.16850313823372   -8.91534072859798
C          -2.63684473467621   -2.35364646149229   -7.54726466716518
N          -2.58598231888723   -1.27100931672072   -7.16252601573460
C          -3.70914789708851   -5.78696791338051   -8.85297232792932
C          -5.06114352752088   -6.19868901556842   -8.98976063839913
C          -5.41267774611414   -7.37509752907290   -9.60480889452537
C          -4.38618271688869   -8.19018979922518  -10.09298663613407
C          -3.03954318048530   -7.77402711844374   -9.94421356528136
C          -2.68182401312589   -6.57946597146076   -9.33319484596105
S          -1.94382327655352   -8.93834885202997  -10.61953722521276
C          -3.26698689878284   -9.94813954583076  -11.08689681090075
C          -4.47704604042963   -9.44559868929259  -10.75584615421751
C          -5.95402502931869   -5.17332521889798   -8.40781019173746
O          -7.14444541209350   -5.07582728587801   -8.55179551835909
C          -5.02738702984830   -4.22809161986005   -7.70663572446424
C          -5.34537690403931   -3.33051753632540   -6.74640317067459
C          -6.62144585113401   -3.09716248731698   -6.15022822102843
N          -7.54369025870568   -4.02143798883557   -5.96743364883356
C          -8.55192674914345   -3.40806182314650   -5.30889900181491
C          -8.24530584697720   -1.99743693358196   -5.05187123380746
C          -9.34832752267714   -1.35316031663998   -4.32687843169440
O          -9.43344835717249   -0.20590887221014   -3.93931081489416
C         -10.32092834170366   -2.45315525298904   -4.17496634614470
C          -9.79229059411307   -3.69142903750296   -4.78136560251500
N         -10.67483669588206   -4.70918539440201   -4.63786796937958
C         -11.69670392056341   -4.18951854711885   -4.00103228372633
C         -11.54228842589761   -2.78388336559935   -3.68211902243519
C          -6.99592593929726   -1.77877794297545   -5.58235396752729
C          -6.16959514009155   -0.62586673251564   -5.63604322754323
C          -6.48390215879501    0.55728587151341   -5.05751726972774
C          -5.63094707960855    1.71291354606472   -5.03330537016698
C          -4.41892494078733    1.76506800341576   -5.70196088158754
C          -3.59348504291588    2.88926031342823   -5.57398081423751
C          -2.32675564347048    3.14987609746871   -6.10438064864733
C          -1.60685439568762    2.28975554945620   -7.07287479188247
C          -1.62829648947168    2.88696411064473   -8.50714621235135
N          -1.18455325740359    4.26908745562176   -8.53716723512531
C          -0.15659092502301    1.95770479643555   -6.67909305341570
N           0.28456133422775    0.82977347366564   -7.47860167664352
C          -1.92057598461127    4.43461263081536   -5.58459099701889
C          -0.78291426963437    5.13905220357974   -5.74200949527291
C          -0.59991598462236    6.47153315009707   -5.10718571054091
C          -1.76595748831310    6.94416748430546   -4.29063140727922
C          -2.88586593068887    6.21613915890569   -4.12827189741692
C          -3.01082000053102    4.95155999140468   -4.74805557912923
C          -4.01779286872645    4.00076396398595   -4.74103155874449
C          -5.27575476978503    3.94576448563465   -4.10186610458316
C          -6.04980082184257    2.83808005400682   -4.25171306306781
C          -0.21820953966223    7.55397179315732   -6.08546720351388
C          -0.03735506517172    7.37300120953820   -7.39738506626498
C           0.26930114370487    8.39942576763298   -8.35130953122716
N          -0.04690895009890    8.19453230925382   -9.61964412126603
C           0.26302900372948    9.33265987728075  -10.27212031940513
C           0.80402779997218   10.34266349880783   -9.35194859988498
C           1.13501604971637   11.57804831638171  -10.08327130463486
O           1.52427406150401   12.63993583871407   -9.64097000864944
C           0.83764362984990   11.21738491034494  -11.47695236433290
C           0.28604867500938    9.84702959568165  -11.54704643293688
N           0.02846545280320    9.50102906187897  -12.82973132160924
C           0.39514125006120   10.53907497493365  -13.54495823196810
C           0.92006097127050   11.63996665866005  -12.76537536227072
C           0.86900892326470    9.73353332679122   -8.11896564730982
C           1.47232308904438   10.20331423159022   -6.91810477817626
C           1.90037164032267   11.48045773071903   -6.77049559532576
C           2.53402772206602   11.96940382572895   -5.60050936167195
C           3.19099696382397   13.15539169989787   -5.50432355680717
C           3.58071535459184   14.09095255812251   -6.54188880137176
C           3.93874495082871   13.76548580328602   -7.82239556475256
C           4.35512579249542   14.71035996774621   -8.78285549629978
N           4.69585059498205   15.44983321854710   -9.59145722144117
C           4.06808884640544   12.43635413702504   -8.28219743764277
N           4.27511586091085   11.37677822639134   -8.67123332844393
C           3.75312317283196   15.38914522470750   -5.90109528584718
C           3.71364512230440   15.20933746577758   -4.49243586822745
C           3.44621750358271   13.79243411549758   -4.18441759759247
O           3.38402658067144   13.26100485681406   -3.09849458316972
C           3.89137160615044   16.25162548904461   -3.61404483534953
C           4.10768246923840   17.52607524569798   -4.14604434344693
C           4.13271550608109   17.69539166426952   -5.55177950561199
C           3.96102110541052   16.64220964619134   -6.44281050795315
S           4.40448291554842   19.35468535126335   -5.97946690901564
C           4.48511523570799   19.79817720175467   -4.30911048106536
C           4.31554653826045   18.75843742833907   -3.46397605860820
H          -6.44883044787165   -7.65943239858521   -9.70117815835575
H          -1.64420370345222   -6.30392483948628   -9.23937818714450
H          -3.05382824896510  -10.87174143059933  -11.58917564120102
H          -5.41051303414173   -9.93494646075512  -10.96680857177133
H          -4.54775427900332   -2.71556416162965   -6.34688289808829
H         -12.55014494314212   -4.79742964515991   -3.75536269457352
H         -12.26104597460544   -2.17856435254920   -3.16578596723001
H          -5.23058297291611   -0.73625866286817   -6.15968791088815
H          -7.43018830789453    0.64359454257490   -4.53887812903357
H          -4.08637421340970    0.93924620662421   -6.31051541792789
H          -2.13354204884306    1.33297666991725   -7.13846859462529
H          -2.64356622137051    2.76148894394649   -8.90923790937130
H          -0.94032033553826    2.27763466163662   -9.09547762765878
H          -1.95969268362925    4.89626676433647   -8.35142782587072
H          -0.80102939257365    4.50589623267622   -9.44434218544563
H          -0.11543194173836    1.77243871480249   -5.59209884381445
H           0.49903708492159    2.79739731348012   -6.91432547681975
H          -0.27927048036834    0.00967268040271   -7.27819838517465
H           1.25269141816889    0.60298018331178   -7.28443717043195
H           0.03517607538069    4.76294866577474   -6.33347008241514
H           0.26185498109711    6.37932292025483   -4.42009589618052
H          -1.66187286432730    7.91473619339825   -3.82965475511600
H          -3.70138923078563    6.58899792780854   -3.52603276332787
H          -5.60611628463553    4.77669996795055   -3.49635055311761
H          -7.01076631298783    2.77545617088758   -3.76275463442625
H          -0.15416780467532    8.53885009655334   -5.64493796375120
H          -0.19505611854750    6.40131374682638   -7.84542752543880
H           0.28906529752225   10.52418356193447  -14.61586094962116
H           1.28182471019829   12.56893029988226  -13.15941560907798
H           1.66417090459393    9.48212590546295   -6.13542243717564
H           1.73281767012019   12.18093866893835   -7.57713404801187
H           2.43220713174263   11.40096952939517   -4.68195855323063
H           3.86447041052619   16.08746611670155   -2.54790115869928
H           3.98076580714177   16.81552636974409   -7.50623461126408
H           4.65677840966226   20.82738575192025   -4.06025079787420
H           4.33360220896475   18.84380101021154   -2.39251553799942
