100
 SCF done       -192.339535887794          0.000441596088
C          -5.60320141276697    3.73245028986463   -0.06151386898702
C          -5.35801162148623    4.23531018938897   -1.31068968110688
C          -5.97644063320091    5.39308942322972   -1.82966109079516
N          -6.46673962628144    6.32055797758808   -2.29273842225176
C          -4.36715664184725    3.70554217006398   -2.15580132722494
N          -3.51950671482947    3.33774597189872   -2.83888850070486
C          -6.41136536552066    4.33061147147200    0.98443621678313
C          -6.06965107568935    3.72509334253418    2.22462129431855
C          -6.65641762149428    4.10166813306664    3.40781110446558
C          -7.63312072510702    5.10238222948595    3.36366894161020
C          -7.97019910340750    5.69435668586977    2.11930588157659
C          -7.36831966073195    5.32728002606375    0.92323359159284
S          -9.20116304997758    6.90160288202372    2.30967080763363
C          -9.25269190099484    6.61442072754248    4.01304323701967
C          -8.39181443081141    5.65922971649956    4.42996585084756
C          -5.01388373064260    2.71346965125141    2.00338896948385
O          -4.26846672920682    2.23257648458615    2.81351279754659
C          -4.99689099622507    2.53697831687245    0.51066169042890
C          -4.66662796496326    1.41911534745346   -0.16827733213993
C          -4.29479575090755    0.17156206573044    0.43777733689363
N          -4.83746280388539   -0.22690272957870    1.56783284484548
C          -4.36104488418863   -1.47571336659100    1.79469039188786
C          -3.48998007068332   -1.90805355419524    0.70433712367594
C          -2.97734168346247   -3.26332922014824    0.94748457877924
O          -2.25091445268678   -3.93561113906376    0.25035316958259
C          -3.57781653317135   -3.59588737792746    2.25987361320035
C          -4.42495880219865   -2.47770505964090    2.73219182598275
N          -4.96763105420556   -2.76658989453120    3.94148309675017
C          -4.51200966395183   -3.95520091853250    4.24577829307914
C          -3.62888555972262   -4.52752235262567    3.24299609160946
C          -3.41391707487507   -0.85479662712963   -0.17726970798860
C          -2.69759051061851   -0.80185876568912   -1.39924731390623
C          -2.40085610685860    0.32458882184941   -2.09485364368547
C          -1.75559728692579    0.36226629063615   -3.35431165054581
N          -1.54396571728022    1.56673333919105   -3.98299491723686
C          -0.95433182257872    1.32707306866632   -5.17950263573962
C          -0.44342487574659    1.92717597377229   -6.31698162912770
C           0.01722349511277    0.88072255053496   -7.14124917334813
N          -0.20367088042442   -0.32910513585593   -6.50888772760015
C          -0.77562322045272   -0.08627301118633   -5.30266604161294
C          -1.26958432995766   -0.68797084543882   -4.15707969439313
C           0.57786750987227    1.01421821133152   -8.42320611341313
C           0.77733423615759    0.00859033497305   -9.32701040483727
C           1.33512756693338    0.26696245113948  -10.59514720379078
N           1.99199464676072    1.40225244141496  -10.85644806175135
C           2.42096712310833    1.30724693885854  -12.11969182352700
C           2.02661475036284    0.02327543582055  -12.71672695653040
C           2.41837823104085   -0.05343891703754  -14.13299929848245
O           2.19033372285934   -0.95077089270589  -14.91950847344047
C           3.10834053408268    1.22681963347436  -14.33360901849704
C           3.09117615932525    2.02674057455528  -13.08931458267808
N           3.69717394136729    3.21781175301771  -13.28006824032129
C           4.07558435898011    3.21379372181366  -14.54105833646439
C           3.73227807334095    2.01014362052274  -15.25625721280830
C           1.31188798161705   -0.64463492382994  -11.76072365182719
C           0.58227912224623   -1.83877492687035  -12.03691358064723
C          -0.56239931683557   -2.26553673139535  -11.46770675331692
C          -1.32639520094443   -3.33211816837258  -12.04584307442121
C          -1.46242089038967   -3.56630378803738  -13.37163232602267
C          -1.08729540162384   -2.77307687890782  -14.53658867710007
C          -1.09540315141240   -1.40982108331635  -14.64178858648073
C          -0.85961691375295   -0.71010962455304  -15.84471184048575
N          -0.69460107983673   -0.08305313352857  -16.79105559745195
C          -1.43126220451812   -0.53465444334650  -13.58857197725448
N          -1.74639422715984    0.22584771423773  -12.78807960198279
C          -0.98407273149783   -3.69513721783052  -15.65777240700746
C          -1.54886170249466   -4.94206565131135  -15.27971668662437
C          -1.95730356614736   -4.88555497095502  -13.86566555674595
O          -2.52079341649307   -5.73332748022141  -13.21229382823156
C          -1.64433876620436   -5.99707397185087  -16.15661455031527
C          -1.15020679651936   -5.81691593842334  -17.45169598713836
C          -0.56239426963121   -4.57721018323182  -17.80624734464232
C          -0.47118184174589   -3.50616323185797  -16.92596874011483
S          -0.00442517443976   -4.59321489771866  -19.44842391772175
C          -0.55891306528377   -6.21978375633025  -19.64705583422865
C          -1.13180817216639   -6.73661910731603  -18.53833498224089
H          -6.37554824203506    3.63390023356730    4.33826096839078
H          -7.65472404336397    5.79797086511493   -0.00328220517930
H          -9.93712996493446    7.18700746985545    4.60843550764607
H          -8.28732279238956    5.34830588726799    5.45344601456258
H          -4.75954081664410    1.40654284799527   -1.24826285806369
H          -4.80048384515455   -4.42903194855901    5.16804432665019
H          -3.15061888816765   -5.48475580316295    3.30850893813557
H          -2.36117469238081   -1.76173781901564   -1.76713608411023
H          -2.65756453697504    1.29132827266297   -1.68291468165358
H          -1.93416524444202    2.43991981543245   -3.65215454431410
H          -0.40932543682148    2.96761581463994   -6.56869832376861
H           0.09185440669980   -1.22228139823153   -6.86223553538698
H          -1.28999957887572   -1.72915036684595   -3.90820565495323
H           0.83164804560086    2.01488581610877   -8.74252522751906
H           0.47966884232986   -1.00769007140550   -9.11154142094232
H           4.59276122613815    4.06336626841560  -14.95228080354338
H           3.94087790352188    1.81336471490327  -16.28915988942452
H           0.94752707481526   -2.37140428841781  -12.90854502000590
H          -0.95428809448817   -1.80752387961025  -10.57083560420103
H          -1.81943756531556   -4.03132508039693  -11.37876380226369
H          -2.08707694861843   -6.93271349617765  -15.85189861725665
H          -0.00129221612752   -2.58335695259606  -17.22389693388766
H          -0.41822190408429   -6.69672697173746  -20.59756972700190
H          -1.53286416257539   -7.73201598658883  -18.47538198851057
