106
 SCF done       -235.013284783643          0.000947002160
C          -7.16568123296408    5.48117565145711   -8.66793458424453
C          -7.04190600799576    4.81917855148558   -7.47809435668485
C          -7.84977393651943    5.07437893311187   -6.34688634972761
N          -8.46894443314810    5.24039165577366   -5.39614756512752
C          -6.05273959992970    3.86172674081731   -7.17659360538196
N          -5.26417140803083    3.10263414168051   -6.82751866225966
C          -8.06866491263453    6.58150641442327   -8.95692958743182
C          -7.65510362455581    7.21012204636659  -10.16246040692817
C          -8.30307730744160    8.30645709758873  -10.67891473851673
C          -9.41651933154147    8.79317863940357   -9.98753201134328
C          -9.82883161457060    8.15010667388113   -8.79175552041996
C          -9.16850107083863    7.04980071549087   -8.26103659663853
S         -11.22665782319343    8.92033813364275   -8.11398697968293
C         -11.24665418608493   10.07267146732270   -9.40235872985804
C         -10.25673946012624    9.89575258877051  -10.30561584556636
C          -6.45942628977096    6.52754323940718  -10.69270005485951
O          -5.69275036815873    6.92899015020702  -11.52747517818427
C          -6.34506530016761    5.28041770415159   -9.85886562200308
C          -5.69461947700354    4.13584231787638  -10.16067274784335
C          -4.98840845156549    3.84855946761741  -11.37221120471152
N          -5.26201648039928    4.41074473231180  -12.52815985610861
C          -4.32520218095499    3.97434735423708  -13.39541030942007
C          -3.36177056129156    3.08240021834592  -12.72237347698076
C          -2.32457603324008    2.62116881595150  -13.66595603560213
O          -1.37842922856600    1.90233455804174  -13.44980601515406
C          -2.74101982798887    3.26761878101028  -14.92712284842326
C          -3.96555906949462    4.08171189150333  -14.71254801245328
N          -4.36343361235384    4.65566350553252  -15.87551894722504
C          -3.49716619434158    4.25794887927627  -16.76983050211472
C          -2.45991623445692    3.38094323840168  -16.24704804118356
C          -3.80955901230601    2.93238712852245  -11.44305966004595
C          -3.26238356250082    2.14458844931290  -10.38060946988241
C          -4.02316232002748    1.49633186305984   -9.47457067427710
C          -3.54066796015587    0.83184146378473   -8.31715588206219
C          -4.32705488708121    0.36405920181155   -7.26654818517991
C          -5.78809775260587    0.45845227606066   -7.23332492083855
O          -6.49498957548253    0.71975413916469   -8.18545906817157
C          -6.34316081745254    0.20871119155535   -5.88403879162902
C          -5.57846775429755   -0.34739183205651   -4.82383296607493
C          -6.32177160678086   -0.48881957197162   -3.67888086562713
S          -7.93964670117827    0.06422303562973   -3.85705712828707
C          -7.63772491774333    0.46636859990548   -5.49988824797845
C          -8.75041438852591    1.01590668486531   -6.33549828679635
F          -8.44240792949644    2.17973156971092   -6.92477001432762
F          -9.13251465559052    0.17588511533247   -7.30214948276173
F          -9.84028433067800    1.25296321668956   -5.58905665560847
C          -5.87007685497784   -1.03785983218196   -2.35862025306561
F          -5.64972143787001   -2.35457956171902   -2.40192047694663
F          -4.76338701738401   -0.44993111691152   -1.90836105433516
F          -6.81686404820215   -0.84635780369709   -1.42066158221145
C          -4.16088382569751   -0.75965260971514   -4.99581125053280
O          -3.61425556675595   -1.56061389270012   -4.28193997476734
C          -3.55710600691000   -0.12813677077471   -6.18266438351631
C          -2.19544640777673   -0.04503914754425   -6.41212491725849
S          -1.85347715663068    0.65267131034246   -7.96453947691692
C          -1.12829489537519   -0.32429043600355   -5.50042548347794
N          -1.22828195242593   -0.02093294494127   -4.22331679022038
C          -0.02778847115564   -0.31586145323485   -3.67308303348854
C           0.90939777441367   -0.79152369637814   -4.70126993446193
C           2.20459127928053   -1.16861325653252   -4.11439121006171
O           3.18672160114197   -1.59146178955809   -4.68103975524943
C           1.98136561916245   -0.90083860773230   -2.68056948205383
C           0.61064048362338   -0.36200445725704   -2.46210147698175
N           0.39492405404024   -0.14032405315230   -1.14232101818592
C           1.49286896087560   -0.52064314914031   -0.54392587444924
C           2.52051976054667   -1.02175610840973   -1.44422237436514
C           0.21104855369621   -0.83599521710852   -5.87402218312229
C           0.70503085737716   -1.36455705973563   -7.10516601937339
C          -0.00642700274677   -2.03112817515340   -8.03520724765142
C           0.58878421117095   -2.62848588352029   -9.19045800091429
C           1.84333222135125   -3.11212221254312   -9.34512976861690
C           2.93814967470388   -3.39581091209941   -8.42621707657504
C           2.84580356406168   -3.81792412977230   -7.12889638691808
C           3.95256002307863   -4.25360128533901   -6.36681124294462
N           4.81582788202341   -4.65167541764199   -5.72550098377321
C           1.63486457852725   -3.96739071394375   -6.42314187644892
N           0.67473373329301   -4.13538556590541   -5.81775369633530
C           4.16068092281084   -3.41687747673537   -9.22086555166607
C           3.81687574844284   -3.42673850813358  -10.59802044413370
C           2.35485740013878   -3.34526790558942  -10.73400726445162
O           1.68797606914089   -3.40255750239031  -11.73976491505964
C           4.76530580498131   -3.48430911662187  -11.59220672102499
C           6.10921255194927   -3.51942670593813  -11.21090354074798
C           6.44124866503221   -3.48571301569431   -9.83367767072452
C           5.48451515857575   -3.43597631634657   -8.82702739174172
S           8.15953645690905   -3.51913483959283   -9.60080637856854
C           8.41503455160742   -3.58355123502667  -11.31059003695532
C           7.27203984953409   -3.57760255045102  -12.03020650547396
H          -7.96243493746777    8.77039929458686  -11.59126121056865
H          -9.51710772349354    6.58780029684571   -7.35209635793845
H         -12.01206610413926   10.82426910000215   -9.40588244381838
H         -10.11379912732523   10.51587833203670  -11.17172430861946
H          -5.69742067385665    3.34930224472059   -9.41869035657424
H          -3.58479083362403    4.57989177120721  -17.79313242806383
H          -1.66568834712034    2.94564745183503  -16.82038682188386
H          -2.18192425040628    2.06487349222830  -10.34675840346071
H          -5.09833506079401    1.46435859695665   -9.58226960990926
H           1.58411445994191   -0.44329009829490    0.52574078583114
H           3.48238357438333   -1.39084937727520   -1.14813973651717
H           1.77827930022588   -1.27772084681371   -7.22354251686842
H          -1.08046600318958   -2.11977173430561   -7.94554275153094
H          -0.02602571736210   -2.66274260032128  -10.08543967517784
H           4.47709428501733   -3.49901016194268  -12.63179847106158
H           5.77974997119548   -3.39914173599851   -7.79137481144417
H           9.42255730494145   -3.62188674338047  -11.67679977179113
H           7.23577594760687   -3.61254299467805  -13.10395571394891
