100
 SCF done       -196.265793317457          0.000854996541
C          -5.23508248853696    4.97080440806463   -3.20167244621428
C          -4.54595618756984    5.37259006473303   -4.31183598954859
C          -4.50038953158478    6.70780870279111   -4.76892696699197
N          -4.44154030138240    7.77540441464945   -5.18446344120948
C          -3.74165832425464    4.51952717476483   -5.09807636207545
N          -3.04565450156476    3.88235389030990   -5.75135883373456
C          -5.95288200878620    5.82029016300044   -2.26538907442797
C          -6.27224033675996    5.06429858641307   -1.10531204078596
C          -6.93559349560932    5.60947474430877   -0.03238160212251
C          -7.31480106654197    6.95278800322140   -0.11144748782024
C          -6.99963661914326    7.69576278862801   -1.27730535154230
C          -6.31938068118666    7.15090876316816   -2.35830245247440
S          -7.56822274367899    9.32991124823281   -1.15416882014531
C          -8.20625254747168    9.01470301043389    0.42152088279479
C          -8.00858094378872    7.74636210765821    0.84401672846900
C          -5.76676136502479    3.68748426133981   -1.25896563310705
O          -5.64545786226001    2.84129969858737   -0.41078595179721
C          -5.32761909081281    3.60780081948214   -2.69076170130727
C          -5.15180332940101    2.46733709270342   -3.38649015853054
C          -5.44865961139669    1.14579976959143   -2.90621747997114
N          -6.55158446588972    0.84351424426331   -2.26113536082118
C          -6.54859437569973   -0.50617057004287   -2.13332306329564
C          -5.37281449132980   -1.09654282531553   -2.79356708474570
C          -5.37685713557381   -2.56173235069066   -2.65716157419508
O          -4.58529691729938   -3.36601540301978   -3.09181643867081
C          -6.59757237706160   -2.79835218262465   -1.85480694896131
C          -7.28519371742966   -1.51481887780523   -1.57248727973158
N          -8.39713980541430   -1.72601195609784   -0.82188006653647
C          -8.43041846924641   -3.01600965025537   -0.61424056756084
C          -7.32903134751019   -3.74630229034596   -1.22163606050351
C          -4.63516896930972   -0.04524269351863   -3.26613549670542
C          -3.40200420753959   -0.01710222204967   -3.97472379703720
C          -2.55746684736505    1.03814018821727   -3.94580926994809
C          -1.38919442535496    1.17446402173021   -4.74492153423228
S          -0.26293585040867    2.46474081398268   -4.40866521107707
C           0.67166146736518    2.06229202381246   -5.81011562390468
C           0.10617582840217    0.96671850908677   -6.50302015017350
C          -1.04139831398892    0.46419589170597   -5.87038474056733
C           0.71519222780099    0.56147464225852   -7.71185580739117
C           1.81518761440948    1.28841634299818   -8.18531226003386
S           2.41766275981591    0.61698507260781   -9.67159145001965
C           1.17853447773931   -0.58670487402765   -9.65731921727027
C           0.36122775751784   -0.50404572336201   -8.58375097104813
C           2.34815766317081    2.39535534038617   -7.49138756762454
C           1.79219806948686    2.74009117976157   -6.26473674484151
C           3.42192910508080    3.19935591735125   -8.02843153618021
N           4.47549587159054    3.48705558692546   -7.29529724536508
C           5.30749925557800    4.19843901079088   -8.08971832620133
C           4.71494433278098    4.40130383892245   -9.41868756078248
C           5.61484189885341    5.19187435203588  -10.28022587406057
O           5.43923595754197    5.55079674516253  -11.42160477993097
C           6.77266484107436    5.42164822249014   -9.39505144114865
C           6.54019509951702    4.79891431694588   -8.06935993417643
N           7.59606669840673    5.01888981977610   -7.24878504504277
C           8.44297222150846    5.72113721344756   -7.95966312576937
C           7.99097237496799    6.01165310022289   -9.30703893434315
C           3.48616471854621    3.79212558701823   -9.39320712240590
C           2.48236372017829    3.88300248798989  -10.39864949272716
C           1.17612032370773    3.55884350209082  -10.23354574765309
C           0.22581903319084    3.67057520706340  -11.27514172432609
C          -1.05136975826786    3.20046150782997  -11.29880691174390
C          -1.88935879959340    2.51804531904332  -10.32826718918086
C          -1.91930335160884    2.67681167588336   -8.96655266826316
C          -2.82145087173751    1.99077053007557   -8.12602487591931
N          -3.51676281404265    1.42947578001042   -7.40469644835128
C          -1.13804442447138    3.59515049417090   -8.23480734544626
N          -0.54656554378477    4.34101813072426   -7.59324529194199
C          -2.87303354291616    1.74745355698012  -11.08772616810669
C          -2.82337519179638    2.14871175526859  -12.44759234122683
C          -1.73687792641260    3.12516550294541  -12.62380211871232
O          -1.41761159175595    3.71254416361129  -13.63098882490239
C          -3.66664720867345    1.63565194166109  -13.40378463923708
C          -4.59445607408005    0.66923080010476  -13.00574379333329
C          -4.62027728143504    0.25538225183515  -11.65210196091013
C          -3.77339957008735    0.78042351259488  -10.68311646391096
S          -5.83033276758363   -0.96099136797157  -11.39061410629834
C          -6.28655839197509   -0.90066992946175  -13.05805569864278
C          -5.56903879714649   -0.01648231728457  -13.78447383208856
H          -7.15923735120750    5.01400023940654    0.83888122549678
H          -6.10268097415074    7.75190785084140   -3.22606602239463
H          -8.69934864421738    9.81186424215848    0.94318506661934
H          -8.33689223374315    7.37074429384016    1.79604135477439
H          -4.80429513124772    2.50248183794234   -4.41339449467046
H          -9.22990503843845   -3.45471203483406   -0.04243655820121
H          -7.17581889143278   -4.80553223457466   -1.15982459780925
H          -3.15166359441811   -0.91028652442635   -4.52908439397828
H          -2.76180463651534    1.86236075573972   -3.27389249786530
H          -1.62349524018747   -0.35548999360245   -6.24802640742240
H           1.14250645309278   -1.29485349705877  -10.46168233527359
H          -0.46012015088672   -1.17296292083666   -8.40270233707199
H           2.19424254873375    3.57712119012144   -5.71885974228949
H           9.38087873983653    6.03313919603861   -7.53373534314885
H           8.53534764252222    6.57440163628254  -10.03922477566222
H           2.81745865462830    4.29826119689440  -11.34163759480225
H           0.84276266161042    3.17805634072146   -9.28398216600004
H           0.57159953737900    4.09411052991891  -12.21313983020199
H          -3.60853905469677    1.97003464893198  -14.42785793721426
H          -3.82947401100421    0.42496884288028   -9.66810226078194
H          -7.07641367069063   -1.54294382815974  -13.39600631793912
H          -5.71203227100823    0.15607364987860  -14.83571499716674
