120
 SCF done       -214.314528920317          0.000535490552
C          -1.35187476416552    1.83662332769367    5.70011530300652
C          -1.29488878629562    2.07883599940033    7.05112683818167
C          -0.35488842169412    1.49057246466139    7.92236899199105
N           0.37840903079762    1.04960249353843    8.68809135170715
C          -2.14730396784290    2.94036107518157    7.76937563728981
N          -2.80461050622880    3.62256617869876    8.42146681358838
C          -0.45707977028023    0.94635333158015    4.96827168730741
C          -0.80564108796638    0.98075667103583    3.59452692788048
C          -0.14647130182426    0.24253462618366    2.64237809663146
C           0.90764439223513   -0.57390209987896    3.06424412337880
C           1.24828394008830   -0.60446583148945    4.43732051457669
C           0.58240107207182    0.14508367985665    5.40056857078554
S           2.57518654554062   -1.68394143469362    4.73132171664579
C           2.66048868967532   -2.07650129222989    3.04916777022858
C           1.74202939114754   -1.43327087492923    2.29556662193463
C          -1.94338228235916    1.89586458038557    3.40764355294409
O          -2.48693844521538    2.16415873224471    2.35071039425588
C          -2.28168761817621    2.40469497889954    4.74252840389489
C          -3.31414032825351    3.25270326066509    5.05119374627277
C          -4.28615904750297    3.85538238289647    4.24083602266803
S          -4.42873415033689    3.67708331751729    2.50712960526138
C          -5.82378975595376    4.69259770823452    2.46552576276671
C          -6.15982402719896    5.16160723252190    3.72979279126423
C          -5.29580627091515    4.69717234930666    4.72630262753866
C          -5.48517225752148    5.17371859665410    6.13253614409889
C          -5.25656794530273    6.67644083470903    6.17839682269996
S          -6.31838242127842    7.52109685893201    4.94209405009599
O          -5.46579967725702    8.18480947738260    3.99596245739142
O          -7.29550508583332    8.31613473266364    5.63434001163958
C          -7.19363332804452    6.16417776335674    4.06113409238989
C          -6.50754334202933    4.91097104236599    1.21285175157587
C          -7.87845621154079    4.96144878216860    1.15060160805084
C          -8.51689412528846    5.09256220340091   -0.10128342400758
C          -9.86200310778351    5.11478620944406   -0.43144113988644
C         -11.00723897815810    5.05513660475042    0.52287559012616
C         -12.01965373515579    6.19340797192661    0.29535138949417
N         -12.61020029952116    6.57106918020541    1.56526192259951
C         -11.68135551621562    3.67162111698466    0.47950506091752
N         -10.78050496410466    2.68480337368692    1.04635674275102
C          -9.93308583339119    5.17754256392868   -1.87455311861749
C         -10.97244107610488    5.12920184290864   -2.72762525578157
C         -10.77507582668207    5.09596787169473   -4.20351500564955
C          -9.36501989179884    5.36855469081447   -4.64602916447865
C          -8.33508081904022    5.40202880275830   -3.78293809937703
C          -8.55625809688489    5.25199958316093   -2.39285483378016
C          -7.70668157602530    5.18511225914591   -1.30972782881220
C          -6.29545130102228    5.14497594807813   -1.20502459157138
C          -5.72239710679553    4.99905918539715    0.01413441456646
C         -11.76418825339790    5.96815014643071   -4.92795424718095
C         -12.04837747621731    5.82298459057553   -6.22438246706528
C         -12.99878603376402    6.61625338326563   -6.94823436452892
S         -14.17130192700028    7.58769064680673   -6.11342696854614
C         -14.91591149728857    8.09050599817410   -7.60900813297302
C         -14.25556295255541    7.52521461876738   -8.68638350627973
C         -13.17332330438501    6.70210997894731   -8.31302589533200
C         -12.38008125922753    6.00755245573142   -9.37495682917683
C         -13.28816610756877    5.07905865415283  -10.16611294233691
S         -14.78089899058315    5.97160419623048  -10.75959496800796
O         -15.92737374160522    5.38832757823901  -10.12257930982479
O         -14.75643626249397    6.01432305512811  -12.19417281943532
C         -14.58588871036847    7.68351491548986  -10.11247661513748
C         -16.09824709545708    8.87505176223397   -7.64744927911309
C         -16.58979275501332    9.72886121433106   -6.71570475449266
C         -15.99736771851257   10.32632700467213   -5.53544122248214
C         -14.68384929716768   10.69254608036678   -5.40092009262042
C         -14.16110062961395   11.33491045795623   -4.26136023028780
N         -13.68767718998807   11.83250292784608   -3.34187292289522
C         -13.74263381388039   10.54000307552430   -6.43975047127312
N         -12.97643485978383   10.47205832397082   -7.29189175812659
C         -17.09118745647750   10.72450834699946   -4.66016926055151
C         -18.30952585280564   10.62272421366169   -5.38296593612997
C         -18.03713550748695   10.09102986234769   -6.73090222151733
O         -18.81148292462607    9.93250890540424   -7.64487208648027
C         -19.51904843561357   10.97827506034230   -4.83602665943856
C         -19.52896085203176   11.44202841603383   -3.51696181220844
C         -18.30936620250981   11.52644228628536   -2.80130051139313
C         -17.08333509166859   11.17752971481793   -3.35554735015028
S         -18.56642681841006   12.11451739300164   -1.18951291485876
C         -20.26597198074781   12.24619823445547   -1.48187633585201
C         -20.63302191257010   11.86677609961028   -2.72532426350076
H          -0.43740741303583    0.29263563488637    1.60458544854408
H           0.88113393509717    0.08441046911441    6.43356909736532
H           3.40538011134132   -2.77642814815173    2.72370487991162
H           1.64547798113916   -1.55264717229930    1.23157513800449
H          -3.41706173126203    3.49903600926330    6.09850889344385
H          -4.81299279989855    4.68253770401426    6.83741073307263
H          -6.50948567011990    4.95692346671149    6.44954523418794
H          -4.23515625258990    6.93522457179037    5.91462922406672
H          -5.51994102725765    7.10167208183132    7.14184714385905
H          -7.64632990115544    6.61997051764805    3.18587847671285
H          -7.95877523304320    5.80511249536977    4.74546750233505
H          -8.47616426104578    4.82361244110442    2.03812922317689
H         -10.61696106220949    5.18575466572834    1.53554486821708
H         -12.76610024029315    5.88752475377082   -0.45784300621439
H         -11.49118577787790    7.06880741646800   -0.09190062412108
H         -13.16458340522125    5.81178368336758    1.94520727475551
H         -13.21206903824652    7.37912486648664    1.45881870151758
H         -11.98309989303127    3.44571069175108   -0.55844315831713
H         -12.58274393655064    3.68391342557360    1.09951932195057
H          -9.91516280655030    2.65870189281647    0.51641429792941
H         -11.19532681401983    1.76023670653419    1.01904437672372
H         -11.99586012770510    5.06933140069722   -2.38562532102308
H         -10.99013615903980    4.05479614216045   -4.50873306308867
H          -9.21798614815259    5.49785151794966   -5.70667447286247
H          -7.32683083025966    5.55874682865299   -4.13745206797205
H          -5.69226665903169    5.21383408585077   -2.09790529337435
H          -4.64883296382926    4.95183828283315    0.11617403950104
H         -12.23244077296485    6.75604481255964   -4.35495065632744
H         -11.54806469478271    5.05289210741750   -6.79782061202680
H         -11.55377913621182    5.44117477716765   -8.94315692607026
H         -11.94979787209461    6.75613709711365  -10.04632450032147
H         -13.66912829709627    4.26835583987343   -9.55100376753920
H         -12.80318227873474    4.68632119797959  -11.05465298652139
H         -15.51941405849212    8.20515296548771  -10.29668769694391
H         -13.78429239289682    8.13555927439445  -10.69172958071151
H         -16.74995537281332    8.69708313025884   -8.49781499221044
H         -20.42973127276971   10.90179644297682   -5.40942865870416
H         -16.17815173268955   11.25317048569785   -2.77541622311235
H         -20.89539117004556   12.60516085253722   -0.69091373799838
H         -21.64585991984227   11.88088463200801   -3.08498084669630
