97
 SCF done       -211.830796794687          0.000379950824
C          -2.01150551313151   -0.81707568576510   -0.17896484104023
C          -0.82838158536893   -0.93052839668688    0.49176887620146
C          -0.02291696193554   -2.09093232601616    0.49018975805970
N           0.66999518451311   -3.00445662083061    0.52101677175061
C          -0.25678650384291    0.09882943099138    1.27227032238055
N           0.24916513708435    0.89370110926187    1.92660270112721
C          -2.65933068432644   -1.83703151983371   -0.98802148625990
C          -3.85364257758963   -1.30764641358871   -1.55099340047404
C          -4.68454073716261   -2.05168654621442   -2.35734391076233
C          -4.32635299839060   -3.37556875354629   -2.62087227146946
C          -3.13356991911607   -3.89571783187303   -2.05619423755545
C          -2.29278755793193   -3.14636294940960   -1.24285233150120
S          -2.89259489884216   -5.54995077377385   -2.51383056526068
C          -4.35563800980151   -5.53491215146628   -3.43534215626998
C          -5.00248071971908   -4.34876649495237   -3.40829888601354
C          -4.01770537339121    0.08249999227941   -1.12703583949047
O          -4.89274109638480    0.87012428868274   -1.42151847434880
C          -2.86374959661723    0.36640958255766   -0.22288903717790
C          -2.75248379627739    1.53771845389000    0.41985816342318
C          -3.74311394467102    2.59951269216914    0.24448152890740
C          -4.98462045240108    2.60024945715273    0.88371015606524
C          -5.40913059758950    1.50057905264492    1.77067078880339
O          -4.77340626692807    0.54524485125779    2.10240277417756
S          -7.08247018086083    1.81758619237037    2.31098269236165
C          -7.19191416392949    3.36506437007703    1.41512240675543
O          -8.18814376645286    4.02523590805692    1.41531729243061
C          -5.91335450399696    3.62251146603218    0.70414253543447
C          -5.65397424736849    4.73745447473193   -0.11299746897480
C          -4.42364181086214    4.71479452692287   -0.78793800084599
C          -3.49824601758796    3.68880188327918   -0.58855964095243
C          -2.23948776934653    3.80843157450638   -1.34020354236406
O          -1.32670999024052    3.03720460975925   -1.34846089818728
S          -2.28172980768303    5.33160668890823   -2.27705593580445
C          -3.95893111651548    5.70299214047269   -1.77920819296928
O          -4.57661031592205    6.61384512757686   -2.25574910184181
C          -6.65168383388942    5.84177993692854   -0.20289851387135
S          -5.98562618519330    7.54871031887385   -0.06309548163511
C          -7.64456530247132    8.13974738116208   -0.48333363120904
C          -8.22551281367744    7.20122416048129   -1.57377530161319
C          -7.45307231007366    5.86201322825414   -1.50716933553605
C          -8.08778233575009    7.99142534772023   -2.89956799609654
O          -9.04475928857978    8.55927388701160   -3.38693726481346
N          -6.84694633437290    8.08188871867273   -3.37894835106845
N          -9.62335634220196    6.99261200207135   -1.26949708787508
C         -10.71631124282242    6.89326327966714   -2.03298700598106
C         -10.81310796222595    6.57514212830903   -3.41758900510404
C          -9.71481329592247    6.08976434852272   -4.25909179601750
O          -8.62147472538343    5.71933551475894   -3.94026030649637
S         -10.25424141735982    5.98943924631539   -5.96819828622660
C         -11.92084209442526    6.45966948726556   -5.56258730696152
O         -12.77249001150151    6.59938690838212   -6.39232874214746
C         -12.03077804615689    6.63872149409502   -4.09806181647293
C         -13.25841031631943    6.86702745250335   -3.45837861516117
C         -13.17780993543166    7.07651022806488   -2.07871677246948
C         -11.97246699783130    7.10398434266452   -1.39434716614888
C         -12.11594714765584    7.36588110005868    0.03806511415283
O         -11.23323479989410    7.47619267811851    0.85425564373632
S         -13.84135640010008    7.52344852475196    0.45956351960754
C         -14.37228800085888    7.24182434326556   -1.23086230659261
O         -15.51759664030898    7.19716292266184   -1.56326587067305
C         -14.54586653138884    6.87789372336753   -4.13046489488065
C         -15.06393002345970    5.93859803572708   -4.93815999565741
C         -14.55471620091690    4.64483953588071   -5.37554345345504
C         -13.74659441943127    3.79815566113228   -4.66897185350431
C         -13.31338390020935    2.54100429888571   -5.14531074233079
N         -12.91801408267075    1.51757621198539   -5.48101580735447
C         -13.28471943846462    4.03074469923107   -3.35841227707850
N         -12.88717300808060    4.13922828845294   -2.28643430948366
C         -15.18421523830258    4.35732217791847   -6.65297462994003
C         -16.22308940959780    5.29861379269933   -6.88256172278738
C         -16.26023885594298    6.27101050350067   -5.77921954207064
O         -17.03130461731476    7.17968785148957   -5.60193629640920
C         -17.00912213212377    5.26625726031618   -8.00967699295310
C         -16.75630088856925    4.26813322513168   -8.95513066162871
C         -15.70766078713313    3.34296866138686   -8.72322353457481
C         -14.91537189459378    3.36997809306780   -7.58334957489159
S         -15.56704878994274    2.21240804265638  -10.03132509897330
C         -16.88592643424717    2.96588056433604  -10.85718874289146
C         -17.41256739918997    4.01808312495316  -10.19250571588497
H          -5.58476841181321   -1.62182345656898   -2.76849960533962
H          -1.39858731725967   -3.58716438713042   -0.83439250934145
H          -4.64710240295984   -6.43029162889055   -3.94922014554935
H          -5.92661570343857   -4.15427160372717   -3.92150326783401
H          -1.92555095267577    1.75895885337516    1.08083243396499
H          -7.34358587626117    5.75683028600994    0.63689230028656
H          -7.57164328763998    9.17291305649283   -0.81797214814817
H          -8.25309409206393    8.10740341325772    0.42361841268705
H          -6.79342348951657    5.74789569259305   -2.36370636941035
H          -8.15894596807514    5.03150632566157   -1.51839594506467
H          -6.04567134192425    7.64552023240490   -2.94878895349127
H          -6.70872359360020    8.60421449979815   -4.22887661844234
H          -9.85333622707891    7.12365817104618   -0.28272808417368
H         -15.16481775307226    7.75486027707323   -3.96715416480933
H         -17.79318696430483    5.99237359672365   -8.15784348997252
H         -14.11966586669103    2.65473633878711   -7.45545020141836
H         -17.18994248031338    2.56924836561827  -11.80641665787971
H         -18.23583727776823    4.60735782760366  -10.55346200318920
