90
 SCF done       -184.457817055772          0.000774320274
C          -4.91254853941805    1.60624632400546   -6.81186528361755
C          -5.11188600479833    2.13353609376824   -8.06256736289782
C          -4.65398598663063    1.53762050300597   -9.25551482356195
N          -4.31235213405326    1.09871946580636  -10.25991517723620
C          -5.77288540771734    3.35162463290382   -8.32251803202489
N          -6.28470476251190    4.34066191716838   -8.60344652315190
C          -4.15474011037074    0.40142346193917   -6.50143141026746
C          -4.08038493922837    0.25871639037039   -5.09243892880672
C          -3.42256979918496   -0.78547233151235   -4.48885197053519
C          -2.80273813743988   -1.73052836313736   -5.31230487023687
C          -2.88530659304757   -1.58192589018571   -6.71783830219602
C          -3.55452070906136   -0.52840989737969   -7.32932748541700
S          -2.05613516481333   -2.86856819721978   -7.53538798831583
C          -1.61283458392870   -3.57767931891180   -6.02154406216850
C          -2.06143981917520   -2.88979804058440   -4.94878332072368
C          -4.81713373047180    1.35811746411996   -4.44576202565697
O          -5.05828176327360    1.47430903825088   -3.26329886567899
C          -5.33259163532083    2.19784797731335   -5.55853213951108
C          -6.21142643116544    3.23077754385539   -5.39264273440159
C          -6.41702660444161    3.91438979575354   -4.17741069600847
S          -7.92622910244828    4.75720752172550   -3.84172027225213
C          -7.41469961448455    5.35622419580981   -2.27886505011106
C          -6.11913428845480    4.91924669536581   -2.07804672122689
C          -5.57667897134404    4.13893433517404   -3.10332849126591
O          -4.28220700015248    3.87733184389063   -2.79117798687145
C          -4.04149909698241    4.44255376662458   -1.57995686169770
O          -3.01026824802503    4.40349551536621   -0.99922440163664
O          -5.15556288780089    5.08716269802706   -1.12412993718009
C          -8.25135761883397    6.13743026152091   -1.45110954320257
C          -7.83884351522214    6.60938178018004   -0.24408948436085
C          -8.61192163171631    7.39191167767127    0.64206360015553
N          -8.07213472304439    7.83878416446594    1.83282981802697
C          -9.01358248466762    8.55624002970100    2.49412778255291
C          -9.26463820122218    9.28271316797411    3.65047235377894
C         -10.59401221938907    9.72080647839172    3.55168285750725
N         -11.13631580274271    9.27169999840360    2.36371727885105
C         -10.19237620939020    8.56060035735320    1.69658777770147
C          -9.94000053532978    7.83584311992935    0.53960685994309
C         -11.36567721425915   10.48930037567393    4.45400379421142
C         -10.91095436188547   11.00898202297597    5.62461693933895
C         -11.73060399671228   11.76230888759377    6.49459008360743
S         -11.11855938504149   12.47328133923961    7.97506511128785
C         -12.65179047709856   13.18983047159039    8.44206012731802
C         -13.56944585322151   12.85780717026007    7.46469740085630
C         -13.06956225839393   12.09017716627237    6.40950719751386
O         -14.09667970390240   11.85460113077663    5.53851922148197
C         -15.19964350069555   12.46302327938102    6.05899659945908
O         -16.27321075653575   12.44660377872788    5.56101550653341
O         -14.89465551637520   13.07809795022994    7.23522370014537
C         -12.80304492104309   13.99522427640097    9.59000308961222
C         -13.98058515569316   14.60213472531212    9.89717490094344
C         -14.13668814792360   15.47410904577110   10.99525391179317
C         -15.20561851844452   16.28355528857513   11.23886903657402
C         -16.34886953279800   16.63180129663567   10.42189086861966
C         -16.38921411394545   16.70843820217790    9.05305519389172
C         -17.52242482022807   17.13692800301082    8.32962956577766
N         -18.41789901785804   17.47419140249431    7.69577670548341
C         -15.28529442975142   16.49760120826849    8.19997334633591
N         -14.41669756385716   16.39631857793403    7.45552724556576
C         -17.38733614950293   17.11914631302249   11.32505554211437
C         -16.82328628485056   17.29316857842081   12.61624721530996
C         -15.41604582800256   16.85497241621908   12.59648814127234
O         -14.60756915286215   16.89661949128256   13.49643024612597
C         -17.54883264201498   17.77867832749959   13.67734757944282
C         -18.89349837020721   18.09443072476281   13.46030700678079
C         -19.45058067973452   17.90090655288744   12.17327526970750
C         -18.71573023818888   17.41912199162219   11.09584805148588
S         -21.12851449672817   18.34104084328509   12.14232973720953
C         -21.07056921215926   18.77637712940100   13.81543591489302
C         -19.85551530228235   18.60142458971001   14.37899030008446
H          -3.38346638592701   -0.86644136139089   -3.41370312960267
H          -3.59568662764614   -0.46229892144403   -8.40379224503368
H          -1.03443022872752   -4.48106285001458   -6.02917762735647
H          -1.88269864462666   -3.18011692153360   -3.92933680207585
H          -6.82022703949282    3.55967797172272   -6.22464204707095
H          -9.24150675439317    6.34888805624438   -1.82290796535339
H          -6.83238569486334    6.37529543652091    0.07825667709852
H          -7.13093448135828    7.65255482389162    2.13461691773821
H          -8.59879669697041    9.47769061657573    4.46571177465103
H         -12.07682759794980    9.46051364039415    2.06133822346847
H         -10.60480603464831    7.63842886597424   -0.27600411908562
H         -12.39578574981635   10.67094136153085    4.17610158153008
H          -9.88723228550613   10.86550732523120    5.93299338337214
H         -11.92277592232196   14.16296037823803   10.19415708401103
H         -14.83692342354817   14.40941707558497    9.26777256560564
H         -13.36485573888811   15.47155543729441   11.75743450177533
H         -17.09215990615066   17.90906694887729   14.64616258287139
H         -19.18451558068818   17.28110262118216   10.13556238870636
H         -21.96540470233416   19.14150507096854   14.28087025652535
H         -19.63170789503092   18.81798568980748   15.40785387116450
