104
 SCF done       -201.330786234234          0.000241709374
C          -4.11654396999757    6.36258996786110    8.91053483918984
C          -5.03533313085968    5.81161647669374    9.76871575001005
C          -4.86435234642776    5.72599576208836   11.16576246028659
N          -4.79447036138105    5.62891551518596   12.30776359891541
C          -6.27637017265962    5.26089822342195    9.39065108889470
N          -7.29948794238360    4.79014091399933    9.16310056007629
C          -2.81626426047140    6.90082912411213    9.29166573123277
C          -2.16160264979842    7.38581925554465    8.13126192818994
C          -0.90915910092444    7.94810843629551    8.16749394864401
C          -0.26293972342563    8.02361517353646    9.40541927918519
C          -0.92317883067497    7.53667111295207   10.55891855746076
C          -2.19486685161879    6.97736595794003   10.52429652977448
S           0.06101337316541    7.73204518641092   11.97544266224506
C           1.32191410226553    8.44558338845720   11.03060971770395
C           1.02719382846368    8.53836213051432    9.71544511561530
C          -3.03421568050237    7.19062118049287    6.96031935957002
O          -2.86889777874005    7.63950184272900    5.84677208137863
C          -4.22919248343754    6.46954311202919    7.46977035065972
C          -5.28939170364345    6.08734668985002    6.69784874156576
C          -5.27098357272718    5.96700774476342    5.29351903740449
S          -6.77472922375507    5.96108696560606    4.37594079236259
C          -6.00214283136794    5.68112837042867    2.83095504475055
C          -4.64667510327805    5.59749272260211    3.06102759517824
C          -4.24558196496193    5.74421483568494    4.39676067138770
O          -2.91007786244906    5.51898349807518    4.46135642762060
C          -2.48264622068166    5.28433315432926    3.19101033675455
O          -1.36258548048913    5.05479139577811    2.88299812554833
O          -3.52942082142250    5.32955603670248    2.32110112734725
C          -6.74128606004196    5.53184913074878    1.61444916888968
C          -8.11887469644606    5.53183626079019    1.63787446010647
C          -8.83737898073839    5.31200257119195    0.45006076520909
C         -10.20157488539919    5.21422590061775    0.20980335417857
C         -11.34608910681654    5.31838222199985    1.16294113405731
C         -11.41797520705640    4.05975063192184    2.04943333414354
N         -11.67665984997829    2.89574529692285    1.21940840915416
C         -11.34190531305538    6.61537546440009    2.00588251553890
N         -10.48726718337646    6.53987629034187    3.17770704389154
C         -10.34887376046210    4.89114909490354   -1.19045904209700
C         -11.43641592978236    4.59269939254773   -1.92301013528178
C         -11.32952157707468    4.17388824606003   -3.35043655816260
C          -9.94817064756077    4.27125715134865   -3.92519678545849
C          -8.87071132915532    4.57585193855241   -3.17928740687800
C          -9.00955184494080    4.84896530196435   -1.79751345233617
C          -8.10082425009895    5.09975671703677   -0.79236768635149
C          -6.68527253057488    5.14513462289527   -0.78380579726918
C          -6.02555519090842    5.34770820899955    0.38253133350977
C         -12.28832107782434    4.95292504564847   -4.20350703209498
C         -13.25127078799567    4.38015925635896   -4.93426380631502
C         -14.16281526584762    5.10440050180666   -5.76398047754076
S         -15.39065592672561    4.28590165492851   -6.69514312530945
C         -16.04637171095218    5.75373514453107   -7.40007900052013
C         -15.31591100956379    6.80595204632745   -6.89164050351224
C         -14.29259454820420    6.45136296608142   -6.00023175259297
O         -13.69551896024033    7.60235419352838   -5.57146435513763
C         -14.34203421321492    8.63296285981404   -6.17423247992274
O         -14.09186072348706    9.77799396937428   -6.02013859843814
O         -15.34406833689006    8.16295423885406   -6.98113403274170
C         -17.17487522553965    5.70401591864850   -8.24850499553765
C         -17.69235304833309    6.67488403243665   -9.04580747284360
C         -17.19822359494162    7.95460938929096   -9.50640381584330
C         -15.89079551588126    8.28042035853316   -9.75620061838678
C         -15.47806679087687    9.50972022702621  -10.31169841262805
N         -15.09287064374695   10.48981528147292  -10.76666341769531
C         -14.82440072467688    7.37986202761441   -9.57924053933004
N         -13.94404935964224    6.65435181443548   -9.44714606490611
C         -18.35679437388609    8.74181618859189   -9.91286301246210
C         -19.49670447625387    7.89563308289860   -9.94164429699729
C         -19.11560560031883    6.54857911977768   -9.48926855142134
O         -19.79866434488283    5.55322325363386   -9.42936210878943
C         -20.73715850337087    8.34575746058944  -10.32699994521406
C         -20.86107039296753    9.69099093720506  -10.68651624276288
C         -19.72052519489053   10.52995476120618  -10.63817039684147
C         -18.46288627517089   10.07428251641816  -10.25827043222733
S         -20.11314202611414   12.15148605969120  -11.11029385637401
C         -21.76376251906939   11.70353479979769  -11.36810789536124
C         -22.01838738329351   10.40163662049303  -11.11272196729291
H          -0.43908422639547    8.30838621444020    7.26572141940023
H          -2.65565309100846    6.62408401636310   11.43161160401289
H           2.22045021491065    8.75627363181566   11.52742185770354
H           1.68953361963325    8.95344755825973    8.97751101965184
H          -6.23303239086866    5.84191421375891    7.16651769372083
H          -8.65731645559710    5.70422588560474    2.55921398837113
H         -12.26396392268389    5.34534445621436    0.56517569409453
H         -12.18929461814717    4.21633598705619    2.82407743284407
H         -10.45540196858942    3.91338855515737    2.54122387701070
H         -12.62473130220294    2.91996085808940    0.85835408688957
H         -11.57244885297265    2.04458298722184    1.75901106498327
H         -12.38865284095842    6.84314314466138    2.26962111508484
H         -10.97373665567957    7.42904057593792    1.37583939617374
H         -10.89911514680005    5.94819567766316    3.89017604427576
H         -10.35433271908859    7.46126376010722    3.57694295912625
H         -12.43489396936208    4.60866049408541   -1.50904278275644
H         -11.63375036774855    3.11497048319875   -3.38844310121495
H          -9.86348192033359    4.05934654896828   -4.97966848884160
H          -7.88673432778029    4.60646758452527   -3.62374042552450
H          -6.14348908066865    5.00533136596959   -1.70719368110902
H          -4.94786549123460    5.37036016658777    0.41001892860599
H         -12.14697067417008    6.02391677592371   -4.22025107344797
H         -13.38834070663617    3.30722682841111   -4.92806298273474
H         -17.75542013418545    4.78819533850340   -8.19892227524108
H         -21.58554310179785    7.67951526297916  -10.34869440743012
H         -17.62336881029937   10.74914747683978  -10.22708234521701
H         -22.45305836778435   12.45556337331125  -11.69975085566616
H         -22.98593702950372    9.94504643407518  -11.21683266948876
