150
 SCF done       -241.447474003712          0.000910849375
C          -6.43593810597461    7.53064866642162  -14.00749058764812
C          -7.38529193411767    6.90801505808989  -14.78035366173581
C          -7.32980507008269    6.81990621460153  -16.18577830356682
N          -7.34098447702151    6.70834594662420  -17.32901359251516
C          -8.54567613703424    6.27156203514334  -14.29596215129587
N          -9.51524809899309    5.73722110119520  -13.98729495863605
C          -5.25845662697698    8.22526978590056  -14.51588390088881
C          -4.54365142329774    8.76939726726524  -13.42084397561127
C          -3.38309985816850    9.48709774933117  -13.57694383352186
C          -2.90803940159044    9.68874303245254  -14.87667927007330
C          -3.62690862984190    9.14005190547405  -15.96417843228060
C          -4.79697950710654    8.40659353095885  -15.80627402508802
S          -2.85466059162398    9.50640113997348  -17.47602567692446
C          -1.60457795578357   10.37583041377533  -16.65451001063862
C          -1.75082142453037   10.39458319415224  -15.31195939748341
C          -5.23298441716579    8.42431141500679  -12.16179549666336
O          -4.81488777932530    8.62972211580644  -11.04233818860505
C          -6.44874262994092    7.67417626287524  -12.56586183282565
C          -7.33088988104192    7.09688900364763  -11.70171122654943
C          -7.45191900870492    7.36495580849488  -10.30110597695142
C          -7.30010906622707    8.66220423965534   -9.75410173210730
O          -7.20338877522097    9.68091143240452  -10.63391782839678
C          -6.90441784248364   10.98178661824766  -10.16776946389226
C          -6.68391633944842   11.86179139365410  -11.38845449387635
C          -7.34970185938341    8.81573720252736   -8.38061778199160
C          -7.56976973748819    7.74184738877184   -7.51387907460638
C          -7.83300754953280    6.46224679674496   -8.07533868996422
C          -7.78314039755992    6.30594727930534   -9.44384541786794
O          -8.08426060562316    5.46276705055831   -7.18604554434540
C          -8.44699439115072    4.17647767501600   -7.64671837041187
C          -9.88688146627723    4.11081525108197   -8.14692963952809
C          -7.53076474850291    7.87600703523172   -6.08458520469859
C          -7.16200762467650    8.97244985773245   -5.38265748907536
C          -7.03218701547003    8.98126689244144   -3.96638088577382
C          -6.53711429801049   10.04024385271529   -3.28550039103224
C          -6.22303324294363   10.10816644658844   -1.88466614947506
C          -5.50932963569668   11.19249819144006   -1.42143787309363
C          -5.05446336644256   11.24351883407826   -0.08944513067301
C          -4.26323493381770   12.16225352748621    0.58398729394847
C          -3.72201530361708   13.46914493624049    0.10362139862190
C          -2.72885539920471   13.28834896443158   -1.05875506992564
N          -1.82550377324230   14.42438652711356   -1.10317722107190
C          -4.87191796726867   14.42323409982630   -0.26458741371790
N          -4.37415513524248   15.76984368853441   -0.51021000020875
C          -4.02020435130762   11.61543691117758    1.89647705634966
C          -3.21570146902087   12.02819620638952    2.89349532600817
C          -3.02705212458193   11.21882569252139    4.13077565271776
C          -3.93891616200448   10.03653920177827    4.24154753289012
C          -4.72743584176305    9.62837899945236    3.23045138412301
C          -4.76415827364164   10.35264602817538    2.01397196548340
C          -5.37777240584684   10.13176348479253    0.80017595078687
C          -6.17621106013265    9.06567201607712    0.31990914842707
C          -6.57771851200292    9.05537458197160   -0.97373902834514
C          -3.10286823511713   12.09548114828227    5.35329343549469
C          -2.04882346671765   12.32703771319392    6.13600491765914
C          -1.98393390332224   13.15756010996023    7.32187618632787
C          -0.72856449220693   13.32744073017095    7.95363329524937
O           0.32581426613262   12.68519275880003    7.38276231561767
C           1.61650666358380   12.83367471026589    7.94112885028063
C           2.58030191043212   12.03446679088812    7.07755834952901
C          -0.63618856620764   14.11823128377406    9.08099983432474
C          -1.74875790038863   14.77003977011626    9.62637283348040
C          -3.00438548560575   14.59904628840696    8.99164540439334
C          -3.09510412545626   13.79998220905808    7.86399329306858
O          -4.05711911497280   15.24193292238619    9.55650674532436
C          -5.33247230364365   15.16086736942357    8.95051328597009
C          -6.28175315879016   16.02381354101276    9.76709599612408
C          -1.65736250656814   15.61558748394206   10.78108752818807
C          -0.56408833901756   15.81837903944717   11.55755906676071
C          -0.54784216832856   16.72790118112806   12.64011006838173
C           0.54009733322526   16.91585965682433   13.43872186217655
C           0.62494971205022   17.78512882117078   14.54782868802943
C          -0.11642908323929   18.88038646445322   14.89673709765927
C          -1.04517337759001   19.73073131537380   14.19020691934125
C          -1.07193355055828   19.98465556493793   12.84019662502102
C          -1.96406316797770   20.88228182633819   12.22302021185478
N          -2.68318778535041   21.58063718554441   11.66178551264009
C          -0.15682825078829   19.43960684561966   11.92010461186267
N           0.58517439377656   19.05109053242871   11.13458517787603
C          -1.79190628671173   20.48953845753298   15.19148687381068
C          -1.18803213533713   20.28644135372764   16.45812780814751
C          -0.07237314725265   19.33301247748268   16.31245202302597
O           0.69904727528329   18.95852549821566   17.16880661284575
C          -1.63500526450212   20.91043155307842   17.59717029064305
C          -2.73511809432219   21.76649400190087   17.48432054321196
C          -3.34182043468846   21.94820341537285   16.21933401745286
C          -2.88554284592109   21.32289400578289   15.06423504472643
S          -4.68846943900973   23.03929490272301   16.31968845435759
C          -4.42804785014549   23.24366063327141   18.01799928697836
C          -3.38645359708091   22.52887948771369   18.49528304158967
H          -2.85922546294163    9.88445789830694  -12.72104133457933
H          -5.30296902467508    8.00415716322247  -16.66773605158376
H          -0.82516011614266   10.82517514254777  -17.23868544719022
H          -1.07093827473064   10.88511813628625  -14.63883578052455
H          -7.98514133760468    6.32119201609435  -12.08106927002121
H          -5.99703189442169   10.95486622164287   -9.55124396597609
H          -7.73889241415786   11.36844310276775   -9.56518554145638
H          -5.84373528798285   11.48607604514814  -11.96685497131107
H          -6.47587387276344   12.88163508743911  -11.07725364693680
H          -7.56981486012297   11.85317382832384  -12.01819683652981
H          -7.21228572217692    9.79348613411467   -7.95131232901550
H          -7.93701176481353    5.33954443092105   -9.89804869549349
H          -8.33236571324538    3.53778330199959   -6.76599216645815
H          -7.74694754016620    3.82733125459422   -8.41550061203531
H         -10.56390091984579    4.43932215641414   -7.36231599208207
H         -10.13177062970704    3.08811935056508   -8.41926681359175
H         -10.03083284746550    4.75039666651787   -9.01375018335271
H          -7.77906832344792    6.97732721724990   -5.53743510375537
H          -6.89364038287955    9.88858820535986   -5.89110107193768
H          -7.29663034496806    8.06803646825582   -3.45261587553452
H          -6.27514740221362   10.92492949666387   -3.85558941087746
H          -5.25308281639917   11.98852134301773   -2.10492682953603
H          -3.15609852647485   13.93338260542274    0.91750237079514
H          -3.28748257790793   13.13740789651242   -1.99588670694552
H          -2.13092303820167   12.38822340736505   -0.87954970124737
H          -2.37874938591301   15.26958713520099   -1.21998643813660
H          -1.19660927138274   14.34320832413068   -1.89519076076819
H          -5.62280985626370   14.38407478984361    0.54366437351654
H          -5.35852181330862   14.08045080306661   -1.18042328730968
H          -3.97723091011733   16.15193411212690    0.34293926029427
H          -5.13491723176013   16.37767346512518   -0.79547284198705
H          -2.63327550886050   12.93707953099193    2.82639038540760
H          -1.99539515606307   10.83019948279168    4.08034792570171
H          -3.89947247479418    9.49981672108058    5.17749952643905
H          -5.34162463496178    8.74505550219728    3.33309498099325
H          -6.44395583233259    8.26157763776558    0.99039625629842
H          -7.18075056928725    8.23999266342543   -1.34127609643557
H          -4.07458057252659   12.52798326910659    5.54106710058539
H          -1.10432411945103   11.86599431033457    5.88018100031873
H           1.62743741566585   12.45421800673300    8.97233655797546
H           1.90484030141741   13.89355271020998    7.94980066174639
H           2.28754310358369   10.98806639821198    7.06406229750329
H           3.58774659560095   12.11747267846659    7.47425659732752
H           2.56623831636053   12.41223883748418    6.05888382567987
H           0.31747350488324   14.26227062154233    9.55850697019852
H          -4.04650180654711   13.65909068262597    7.37923812403086
H          -5.67992581442466   14.11840882092586    8.94092869753223
H          -5.28181695619328   15.52699397382042    7.91607416909713
H          -6.32961804077892   15.65909785114108   10.78951850476703
H          -7.27590557883571   15.99345397871245    9.33096117741670
H          -5.92978609851430   17.05172571899289    9.78117482946189
H          -2.56980475295506   16.13831922791693   11.03436439465997
H           0.36223477477056   15.29945228890022   11.35669056229105
H          -1.46525652160465   17.26312315622165   12.84902426969099
H           1.40618358062700   16.28913064449251   13.26646911344222
H           1.36496993143372   17.51531968004976   15.29740640911192
H          -1.14904678603836   20.74464287070558   18.54609624487210
H          -3.38234880292314   21.49064407273050   14.12295690067645
H          -5.08349020404202   23.89610483045317   18.56125903035726
H          -3.07653757572428   22.52989162322521   19.52463081973390
