110
 SCF done       -197.557554525352          0.000485655639
C          -9.85137357354413   -2.16145063143069    7.27344356063881
C         -10.23722963395802   -3.47366936793142    7.22543037667944
C          -9.65202416675310   -4.50127409519285    7.99666223507314
N          -9.22526014844616   -5.38306981598238    8.59386023110680
C         -11.28570461319820   -3.97380240973770    6.42536146887347
N         -12.12280258711837   -4.43916008225216    5.79206786161278
C          -8.77951806184572   -1.61095407093042    8.08769330971152
C          -8.78290262747663   -0.19601764382192    7.96605897138347
C          -7.86681008572416    0.60419243242485    8.60657172220806
C          -6.89264355507416   -0.01890905180392    9.38834986861260
C          -6.89070696883031   -1.43223946405285    9.49607399329529
C          -7.82389475531106   -2.24119928850466    8.86180365039731
S          -5.58895260894493   -1.98303337904478   10.49551920811458
C          -5.06816377706806   -0.35724706709831   10.76005055096623
C          -5.82925993655395    0.56496306467313   10.12999323937667
C          -9.86104398736340    0.20842649000743    7.06264112820894
O         -10.27090773802536    1.33336036171654    6.85458543083562
C         -10.41754842075786   -1.05948047769749    6.50727873587646
C         -11.26397586447054   -1.11710468918664    5.44746491357848
C         -11.57642441093010    0.00996491504218    4.62401944040393
C         -12.82710397187089    0.34923082224044    4.20342598378875
C         -12.77350340711794    1.68317234155007    3.64759870802729
C         -13.87254349732067    2.37910654060088    3.12475868149631
N         -14.76641196204455    2.95248957879780    2.68954986314460
C         -11.49026549072403    2.15612781636736    3.72731409038342
C         -10.65547355848431    1.11347303919645    4.24997142727653
C          -9.28481691810683    1.04750581026568    4.29476945236136
C          -8.35340669262618    2.17835387783394    4.50144753491280
C          -7.24615313619442    1.66627002053156    5.10720692664691
C          -7.33657535201984    0.22171089513570    5.13387297232850
C          -8.54478477787204   -0.15093791807833    4.61404147156206
C          -6.36854272646890   -0.62332831297575    5.68893681627995
N          -5.59604559768727   -1.30361530775597    6.19814831760204
C          -8.61251537551286    3.58293446416377    4.33932400259405
C          -9.15855351950343    4.18237272597473    3.26428963742134
C          -9.54422940385588    5.56596897618786    3.25790197251283
C          -9.54696749780630    6.44320945705073    2.19204622967735
C          -9.13777772678935    6.25498136777286    0.77765837244614
N          -9.96545163322531    7.65349475855722    2.66028437388884
C         -10.24870193103717    7.59856527285593    3.98910790439442
C         -10.78866284634345    8.78015568325708    4.70838587458676
C         -10.00547081633745    6.29880722771814    4.41443192033935
C         -10.26055230602449    5.68963854477337    5.68052057305437
C         -10.31886474477871    6.29260209375491    6.89178811305705
C         -10.50444302091025    5.55915426240390    8.10119366614253
C         -10.33602240343407    4.21825329504193    8.29297009475563
C         -10.40860519388657    3.94354308908604    9.70702768141637
C         -10.25695544954066    2.65743306067004   10.24152132045017
N         -10.08756716947160    1.59656418610800   10.64795246779047
C         -10.59368393716388    5.11697922420901   10.40139714323437
C         -10.72657507429848    6.16902893296432    9.44636414876318
C         -11.14024191901601    7.45334971626635    9.69673103591041
C         -11.14573906072042    8.15278643122077   10.99562217798560
C         -11.81239716034070    9.33638512906418   10.82007688132035
C         -12.24067917415580    9.42792095575088    9.44737694756166
C         -11.81007759440904    8.31562078389149    8.76798459441710
C         -12.96232880869199   10.49798348858903    8.90225925176317
N         -13.53238738699186   11.38198069046266    8.44217815504018
C         -10.44648349717469    7.73047379015559   12.16147028722515
C         -10.73728704840207    8.15044861005489   13.41833907461510
C         -10.01315109100160    7.72295780124533   14.55578216560839
C         -10.37628999471437    7.88004636036241   15.85941111544619
C         -11.63029388697053    8.29208736513717   16.45101069509756
C         -12.88024898016147    8.07924765773761   15.92681190525791
C         -14.07512850835933    8.46471081830834   16.56768506321322
N         -15.07328288341900    8.78197791743345   17.03745064695709
C         -13.11772638914129    7.34517447624602   14.74581200403893
N         -13.36133164959842    6.70539734204842   13.82409594169660
C         -11.34106820381292    8.74457935727395   17.80678911314458
C          -9.99968091806222    8.40194142736457   18.12197156147998
C          -9.36491305574204    7.77821870931321   16.94533178942043
O          -8.24610123572172    7.32552706765163   16.85288242601903
C          -9.44721810486549    8.65653813258680   19.35397800392516
C         -10.24752588877967    9.28577888346353   20.31272059492654
C         -11.57868012029310    9.63673763937972   19.98199056056738
C         -12.14297588379663    9.37228069586316   18.73938643609384
S         -12.37399528016809   10.41263951235804   21.31453519757363
C         -10.95079580257200   10.25839609287799   22.28530535866250
C          -9.92248604860794    9.65770862683811   21.64780452127191
H          -7.89237880742576    1.67702488499943    8.49497335666285
H          -7.77866655734344   -3.31196230405358    8.97096616047969
H          -4.20996454272925   -0.18693469328382   11.38093975097164
H          -5.65794093242495    1.62493879432466   10.18193153670859
H         -11.76815541470192   -2.04402840913141    5.20561255772461
H         -13.72987236337114   -0.21583008386096    4.34313932500598
H         -11.15950379662152    3.11152670709339    3.37437977073488
H          -6.40484398280846    2.22406309289189    5.47511421682738
H          -8.87661582721908   -1.15398295746291    4.42853333269689
H          -8.27385011510644    4.20654227890114    5.15795236602321
H          -9.31411519243017    3.61986851850853    2.35094893627964
H          -9.14258818982765    5.19943812461176    0.52132582756623
H          -8.13026017946997    6.63894439814313    0.60974549596139
H          -9.81714244854296    6.78236095045094    0.10928922464454
H         -10.06252105187993    8.48049196348949    2.09192273836192
H         -11.13121830911657    9.53168749573697    4.00002573448774
H         -10.02951292322994    9.23551912042097    5.34558134557123
H         -11.62914409333128    8.49035186082620    5.33605228896082
H         -10.42012833053713    4.61998052738379    5.64486683479148
H         -10.14521664056385    7.35421342371685    6.97687619572752
H         -10.15273361265453    3.45839762980726    7.55827079370352
H         -10.76230911247004    5.20027917575939   11.45737137946699
H         -11.96653384471624   10.10966815757720   11.54883551089454
H         -12.05800253969820    8.06705519088207    7.75471194927499
H          -9.65163732807747    7.00886237486093   12.02695351004201
H         -11.56416707976441    8.82983635502498   13.56779317993980
H          -9.03404355713493    7.28491882859512   14.39134566719188
H          -8.42820890593389    8.37670826389111   19.57196891661348
H         -13.15984117467600    9.66083593429909   18.52933656643163
H         -10.97320820419693   10.63403922991884   23.28982119130559
H          -8.96100470701449    9.47670813193702   22.09313319411520
