138
 SCF done       -228.134657788457          0.000383205986
C          -0.86929645269655    5.15806649679149    0.36940967724617
C          -0.67145686894257    6.50651628301442    0.50913039255037
C           0.57857630645132    7.08587107523834    0.81608452941609
N           1.56041336989249    7.62973420560521    1.05802022657643
C          -1.65087781385116    7.51415251798345    0.40964870056603
N          -2.39177462918141    8.39297342724890    0.36587336783490
C           0.11776665719269    4.12732908233830    0.57465657085173
C          -0.55730785968022    2.86270694881552    0.49278630847951
C           0.13598172584874    1.67149637903469    0.65723466928717
C           1.50717557652834    1.73482125609672    0.90408790701223
C           2.15363061031340    2.99160434954520    0.97150954024005
C           1.47761413062906    4.19214756524662    0.80625584276380
S           3.85913323523587    2.81012038294667    1.28585169052692
C           3.68850014172250    1.09205513944069    1.32427578171072
C           2.42361309118325    0.66523685192421    1.11207435172505
C          -1.92410476123785    3.10637284094097    0.21748077969603
O          -2.86023683797945    2.11222796838249   -0.03429685409696
C          -2.16329042028283    4.47706025453029    0.11280721115620
C          -3.30366805272758    5.20948979825935   -0.15700854843783
N          -4.69091591889311    4.72843590564439   -0.05956860469639
C          -4.82157206876329    3.90269004506926    1.15433298672964
C          -4.48924045201264    4.48218580762807    2.37573101806284
S          -4.12219575745971    6.20356726964957    2.48870049753841
C          -5.24367174746282    6.74057768990244    1.23844389712156
C          -5.86840985409062    7.96906232612731    1.39830486998858
C          -6.73551530615711    8.43397316857202    0.43001577701178
C          -6.97534978179788    7.66614960809698   -0.69642288201405
C          -6.34595100073299    6.44399797084732   -0.86553710388420
C          -5.48196196309169    5.96190510251824    0.10671428865444
C          -4.48474930158732    3.72962213357035    3.54364997687089
C          -4.83984122796258    2.39755791406052    3.50703926294210
C          -5.21996861634607    1.82793136424287    2.30285868857677
C          -5.20380803750395    2.56847505850851    1.13373307831705
C          -5.00824255215781    3.98535453511087   -1.30761205859142
C          -6.43037554127699    3.51994406129527   -1.51822851444918
C          -7.42662924753895    3.61739630380240   -0.59294562434468
C          -8.71788941626921    3.11803520166158   -0.88972119135744
C          -9.86585243798919    3.06967286117879   -0.11854702058768
C         -10.00164259219887    3.69529155250813    1.23326210133219
C         -10.46392046851770    5.15884095165888    1.07097308168394
N         -11.77881052787756    5.21186064630948    0.46013770702252
C         -10.92769156497692    2.94804785449083    2.21679225622247
N         -10.61209627037783    3.16367012249340    3.61587402527162
C         -10.88103074596990    2.44173086854037   -0.93158025969898
C         -12.16543403855029    2.11243555974009   -0.68112107293555
C         -13.01740836540798    1.44959432192013   -1.69736585239753
C         -12.36317345418626    1.22994313959395   -3.02369101194484
C         -11.07520842216900    1.54254092090913   -3.25711848491522
C         -10.28745805008178    2.13025940287471   -2.24034372269268
C          -8.96470809963756    2.53095128487014   -2.19639740318584
C          -7.91358734161555    2.46206844143933   -3.13502484568527
C          -6.68575955204131    2.93946486478202   -2.79897629934835
C         -14.34846487239076    2.13943406853536   -1.89215294132348
C         -14.66509563982633    3.33035982232011   -1.39289000138350
N         -15.85594354460613    4.00385573554709   -1.63558136356016
C         -14.74169765224778    6.24636835419648   -3.37317988964860
C         -13.91058919579258    5.16274072217881   -3.61587801307104
S         -14.48054563255308    3.73198755763876   -4.48882313838051
C         -16.19500211258571    3.58677957996871   -4.02817828269869
C         -17.05760743074214    3.29259447675434   -5.07601218084844
C         -18.40744656694374    3.09880727296097   -4.86065294674597
C         -18.90286642184923    3.19654128104308   -3.57145345172839
C         -18.05255473122445    3.47458666394439   -2.51994973088395
C         -16.68111079231715    3.66977805560198   -2.71074593174563
C         -12.57374801399677    5.20424839404367   -3.24141834921714
C         -12.07348112843684    6.33200314553615   -2.61650823091254
C         -12.90333881901426    7.40919351400930   -2.34937562146357
C         -14.23527626704577    7.36137108370936   -2.72907814980494
C         -16.43688573187688    4.64210930549349   -0.46383459133018
C         -15.51087906242556    5.65606172076487    0.11289601097055
C         -15.19613553798161    5.84418230769893    1.40332016390951
C         -15.58612484374133    5.13288251778081    2.61365480495894
C         -16.82647622367278    4.61120280558662    2.89990947386383
C         -17.95536014659385    4.79375211798414    2.08025466442387
N         -18.90988802420359    4.96168267575078    1.46197448651362
C         -17.13471767965978    3.94498870467677    4.10116707659807
N         -17.43388482504360    3.37994554808647    5.05583357174712
C         -14.47914631809919    5.25394808350721    3.54235749830984
C         -13.58775240278631    6.25544349353953    3.06780020195651
C         -14.05159180057048    6.73690888389516    1.76218071735639
O         -13.58921104975697    7.62435494843288    1.07826839150333
C         -12.46812832669950    6.63327957756025    3.77000472726989
C         -12.19115985187612    5.97062330585592    4.96955963856366
C         -13.06916718254683    4.95212148479626    5.41697358997021
C         -14.21818454357041    4.58998665252677    4.72839559043750
S         -12.51556430457560    4.25589121297165    6.90514749877644
C         -11.14638944873307    5.31272591755576    6.92154366879145
C         -11.09736979708365    6.15118383014927    5.86308571112393
H          -0.35342341303367    0.70817993961595    0.60312103434187
H           2.01061087138418    5.12701579717277    0.85717268611392
H           4.56073102550213    0.49430221892794    1.50651089871536
H           2.13572979168952   -0.37135178116191    1.10146216758862
H          -3.23576518790977    6.23466532282775   -0.46438051003238
H          -2.42360509778714    1.26734526570696    0.11376646959460
H          -5.64757395454272    8.55167102104706    2.27803639017775
H          -7.21397571024801    9.39274823894467    0.54981707883379
H          -7.64134278926906    8.02196177156477   -1.46657323724089
H          -6.54220139878129    5.88882841025473   -1.76614400169900
H          -4.20333385756097    4.21000854480550    4.46727470280239
H          -4.83235434641939    1.81121196341102    4.41237912283458
H          -5.52012148520413    0.79284442105576    2.26146361041660
H          -5.48636452289340    2.08086462954074    0.21847860086331
H          -4.33057043079712    3.12552740470749   -1.32086734955541
H          -4.71011289987527    4.63782799292692   -2.13557257180928
H          -7.26105144052383    4.06538675712102    0.37601527653208
H          -8.99969648310032    3.72248411767598    1.68512987409339
H          -9.69272410584403    5.70457045076801    0.49715668195821
H         -10.53907418890404    5.62863473613477    2.05743041931466
H         -11.73978676630027    4.79871371363209   -0.46682885951229
H         -12.06848744910675    6.17661032469433    0.34758543821066
H         -10.86961875092396    1.87245202495455    2.03123293361324
H         -11.95409652253184    3.28694027688957    2.06442363357669
H          -9.66557188790193    2.85682271300405    3.81773793347525
H         -10.67239469628203    4.15090457346433    3.84062680252709
H         -12.62319119837955    2.30046029412155    0.27713726406558
H         -13.25820345542918    0.45005721541614   -1.29007821079142
H         -12.98377909235732    0.80315624518692   -3.79602401652396
H         -10.63061930839295    1.36186191449630   -4.22541338778799
H          -8.08938060794688    2.02726945850946   -4.10755753749334
H          -5.86749633747048    2.88677338984582   -3.50258351589966
H         -15.03843899550846    1.61617309468637   -2.53878385017552
H         -14.00440771987996    3.86384426969075   -0.72156405836830
H         -15.77601426750643    6.21451979426497   -3.68355726115555
H         -16.64644727108124    3.22830959079461   -6.07213730612016
H         -19.06269874183681    2.87839232764297   -5.68857333734128
H         -19.95358274701895    3.04498685318953   -3.37714254092397
H         -18.45873605859539    3.51071764477109   -1.52108107097610
H         -11.93857544328592    4.35480513961756   -3.44526442836935
H         -11.02904602181538    6.36756035975573   -2.33955764587964
H         -12.51991091222940    8.28205776605121   -1.84394986573439
H         -14.88307929603700    8.20237035029840   -2.52992972214633
H         -16.70515823528438    3.88708493659824    0.28645525880942
H         -17.35162773466587    5.16265275278927   -0.76611105421285
H         -15.00362125334417    6.28534721328342   -0.60895708791619
H         -11.82399604518385    7.41842067335538    3.40342439224474
H         -14.86075991532042    3.81274511047826    5.10765380377251
H         -10.45216992067430    5.24205943026782    7.73617193209779
H         -10.32100923222548    6.87923141448497    5.70731964443276
