88
 SCF done       -192.896882403823          0.000980901515
C          -3.22592713196667    0.22947899292674    2.93301237400142
C          -2.58529753860332   -0.96074172174037    2.71612929411037
C          -1.84990679008624   -1.64660311365544    3.70639840169901
N          -1.24903900602324   -2.24796800882932    4.47718731692311
C          -2.49043693434110   -1.61364411858169    1.46667228460029
N          -2.31627415136369   -2.16995376397609    0.47842065560735
C          -3.16708443779552    1.02221519314778    4.15148180665805
C          -3.72698282471926    2.29745573333812    3.88460486249965
C          -3.78943717452863    3.29018959390667    4.83438708635910
C          -3.28599483977064    3.00846582996772    6.10707997998274
C          -2.73916695991806    1.72726377347610    6.36720145719212
C          -2.66890533407745    0.72586556393208    5.40573021232516
S          -2.18613500383993    1.60103558227790    8.00554601272427
C          -2.67655828081361    3.22900494075534    8.32252934673791
C          -3.23144211566750    3.84604628451183    7.25638803828312
C          -4.19449380313391    2.35842103320650    2.49087412198173
O          -4.65749476092629    3.33779399999047    1.94254344432680
C          -3.98596796186224    0.98411150594506    1.94611114721604
C          -4.53019789597746    0.42574596142279    0.82425598882687
C          -5.26418262454487    1.08048783034227   -0.18693829726182
O          -5.34881370151841    2.41142163704265   -0.24355573546128
C          -6.08775679821406    2.76535306069603   -1.31247537742186
C          -6.49117771589118    1.63519919136724   -1.99934103527100
C          -5.97221018529715    0.53610186775828   -1.28177040717328
C          -6.14553792854659   -0.87567722866512   -1.53885507536215
O          -5.79530811465422   -1.78347200774195   -0.82826242268818
C          -6.88727899745431   -1.18613114442936   -2.87330384438625
F          -6.27503623515713   -0.62179164513424   -3.92757630418729
F          -6.96845629829473   -2.48982608081049   -3.10884944994063
F          -8.14304326358162   -0.70240339557642   -2.85697464781524
C          -6.32288013247341    4.15807808241948   -1.47806764768688
N          -5.90452016169126    5.02418832236244   -0.49528485467753
C          -6.26016187431161    6.27844566509224   -0.86599752254834
C          -6.24025487822240    7.61140294761493   -0.48160863955631
C          -6.87094459768433    8.32310652884001   -1.51794814600930
N          -7.26238607548538    7.44489365572142   -2.50970282905188
C          -6.90929347986784    6.19256233127124   -2.13387328753824
C          -6.95073110825027    4.85449693472053   -2.51475216098983
C          -7.10313419733059    9.71032890374610   -1.55325266220168
C          -7.73849930276580   10.39457303135399   -2.54905599992136
C          -8.01019799347154   11.77277657398305   -2.46743698210144
O          -7.62881956302982   12.49250652917614   -1.40589076303655
C          -8.10316327249916   13.76433190206518   -1.55117158377012
C          -8.76933687217170   13.87639703421222   -2.75370755329878
C          -8.72738614913039   12.60194466229791   -3.36218530512270
C          -9.28041747740904   12.17270013457835   -4.61466519695739
O          -9.21710597667811   11.06076493898700   -5.09220798825666
C         -10.01263885827403   13.29486300580049   -5.40319239305705
F          -9.18663597843691   14.32020759909157   -5.68374986036037
F         -10.50039290405551   12.85561171386126   -6.55968943905689
F         -11.03876085425936   13.81244439984746   -4.70716632386773
C          -7.85217797467794   14.75436042745109   -0.56991587339434
C          -7.26263347696319   14.61414617487480    0.64720465964196
C          -6.85511384291720   13.44411908752473    1.39840198578072
C          -7.49384251655876   12.23170997366797    1.42497935055872
C          -7.00660399007431   11.09465765998111    2.09587506653825
N          -6.62128272058315   10.11459296028892    2.55471853613594
C          -8.75124020151077   12.00416945141104    0.82509506336058
N          -9.80649375470185   11.79656775318819    0.42472990604209
C          -5.79740213847601   13.86344220275632    2.30909203907632
C          -5.73517608709366   15.28203726251750    2.30915496437994
C          -6.69876102472817   15.81572187949507    1.32830102664862
O          -6.94865421523781   16.97177649086937    1.08020776104437
C          -4.87802291256811   15.97930661429928    3.12621782577823
C          -4.04030517707447   15.24694235574050    3.97312394008791
C          -4.10239031311269   13.83228573836432    3.95595856969107
C          -4.97385778616856   13.12489644489520    3.13639466733639
S          -2.97621434886577   13.14057954291512    5.08037291099239
C          -2.44740627250323   14.71645456107979    5.55879900070639
C          -3.07708817190738   15.71923312911924    4.90893242709595
H          -4.21454776881388    4.25422124272710    4.60152138452573
H          -2.24705331916493   -0.23452960696203    5.65089023370791
H          -2.51726680330802    3.62971795558343    9.30478072091757
H          -3.59465579294409    4.85761642111378    7.26741432930197
H          -4.43363359352689   -0.64121490035405    0.67176993918352
H          -7.09201791704760    1.61583388225809   -2.88395469118900
H          -5.45079023697275    4.72258558359500    0.35636292267203
H          -5.85067237896474    8.04469671496971    0.41747347242248
H          -7.74998430534525    7.70726420043007   -3.34882600573585
H          -7.36203884223205    4.42184313453580   -3.40305188470743
H          -6.75096263651860   10.25799372654922   -0.69032140280489
H          -8.10419084544570    9.90778710294934   -3.43888034198483
H          -9.23535141026952   14.76461782071442   -3.12803660942879
H          -8.08761259226615   15.76885307439114   -0.86899982625081
H          -4.85819572530435   17.05793207963535    3.11497532478101
H          -4.98678716760668   12.04734035871178    3.15429631680939
H          -1.68468615220735   14.79449835910429    6.30899657526414
H          -2.87862907130869   16.76244289383662    5.07526162116346
