101
 SCF done       -196.390724235179          0.000681770148
C          -9.97606817728156   -0.42215152298040   -3.74646469060640
C         -10.87907400497971   -1.20501177982436   -3.07493156610416
C         -11.45088149076788   -2.38372017944502   -3.60248200132513
N         -11.95529083380091   -3.34699618928300   -3.96928301123167
C         -11.35277296241397   -0.99045045249699   -1.76309391729628
N         -11.76504088329919   -0.90149352082311   -0.69433002973548
C          -9.42987994380520   -0.70905603197016   -5.06502751396275
C          -8.46004887629211    0.27487113408269   -5.38471928548335
C          -7.74551955637658    0.25859474030230   -6.55895387146469
C          -8.00274003612165   -0.77285959364366   -7.46591604318597
C          -8.97885685247503   -1.74781887930738   -7.14276780078140
C          -9.69815428926383   -1.73407069052218   -5.95451830774538
S          -9.13242217162422   -2.92588701354122   -8.40708660158561
C          -7.91565179279812   -2.12249538458667   -9.33646665106620
C          -7.41203916623003   -1.02158186367232   -8.73618947044899
C          -8.37174681146015    1.25759981099638   -4.29337221815468
O          -7.62989235753551    2.21401045534906   -4.24208337836236
C          -9.35922010357995    0.81195946375333   -3.27106851283351
C          -9.59713366555076    1.38921839936790   -2.06480523374779
C          -9.06833005261861    2.59661454155112   -1.51825202733235
C          -8.73213098014457    3.76030833004109   -2.14483667638027
C          -8.46260206452341    4.76772169964890   -1.13576992827800
C          -8.03800545018031    6.07407058411204   -1.42109710086682
N          -7.68786929949562    7.14055577507642   -1.65726293353122
C          -8.67883395978063    4.23673483051944    0.10565218725919
C          -9.02435135073188    2.84895160635569   -0.05767459563150
C          -9.12844837250723    1.90301980882439    0.92607831059935
C          -9.33119730038597    2.11990583118162    2.37933318926404
C          -9.22316047886555    0.90111461865034    2.98861501221506
C          -8.94428763509821   -0.10199297685126    1.98519819264316
C          -8.92570842927760    0.49001427870785    0.75158763383533
C          -8.71279954381152   -1.45710984965875    2.26343205446389
N          -8.51351674496924   -2.56069992937676    2.50497942098944
C          -9.70646751060103    3.35149750411482    2.98795409350875
C          -9.66832486353054    3.58439006307460    4.32090906443861
C         -10.06469147116414    4.82936615573280    4.89922361947665
N         -10.40250099252300    5.85596448955934    4.13074131007663
N         -10.78515772160995    6.99544164717715    4.59034449808458
C         -10.94503607063772    7.27119517154469    5.87847642312609
C         -10.57569790672068    6.26589432900277    6.82241967240210
C         -10.10347475963336    5.01458122011157    6.31298856178187
N          -9.79489409194371    4.16017792291710    7.28286711608219
S         -10.07857645464198    4.86489135784674    8.69986157500863
N         -10.60524754984356    6.28250101029117    8.15202994404653
C         -11.40418733729836    8.56617351330096    6.27235602291358
C         -11.21466974864890    9.14224408469260    7.49857796939337
C         -11.62213003452507   10.52263822759806    7.42007833293925
C         -11.61998826084583   11.40991684844880    8.50566686030096
N         -11.61310124325566   12.12822700724913    9.40058561646170
C         -12.00355371975402   10.80721418312116    6.13113209179923
C         -11.93744933363794    9.59831559128950    5.36575187024688
C         -12.37397957650275    9.42591698156830    4.07727155271036
C         -12.53478242494297   10.48353911744065    3.06082958226825
C         -13.04237914685835    9.89769468525410    1.93453725015134
C         -13.26199118094563    8.49023680364231    2.20358337845702
C         -12.85508431347127    8.20723939914850    3.47983201055713
C         -13.80666762760306    7.57621635219165    1.29178693809103
N         -14.24638496932551    6.81839858330312    0.55005208655028
C         -12.07540939151305   11.82854535343910    3.17888933484792
C         -12.57386985031945   12.85916282426493    2.45014411087882
C         -12.03882267331437   14.16387604173058    2.53408828392586
C         -12.38867796323235   15.27950109811190    1.83494912118019
C         -13.28566167410716   15.51698387157337    0.72285790009947
C         -13.63519108071202   14.64391907470974   -0.27530071962929
C         -14.46950230723320   14.98798233860416   -1.36078562004661
N         -15.15273329072488   15.19925174356005   -2.25858727269731
C         -13.15706231550172   13.32628142488576   -0.42264528585430
N         -12.79483407135907   12.25649877960993   -0.63134595654778
C         -13.60520729304888   16.94290854061196    0.72762910754439
C         -12.75846801970686   17.60072498199690    1.65710283522638
C         -11.91367757990220   16.60203934938555    2.33206759603558
O         -11.04627214825959   16.79018503154898    3.15494929816327
C         -12.79805254195321   18.95904342416029    1.86088838036116
C         -13.72325518358986   19.70367272270951    1.12354290848511
C         -14.57641029479615   19.03660047585223    0.21165258681004
C         -14.53164581317478   17.66361785037794   -0.00110241938439
S         -15.64874684958283   20.15092012562296   -0.57532739774853
C         -14.95726406114693   21.47272183400472    0.30026006440554
C         -13.97019874786543   21.10534549978023    1.14606718098417
H          -7.01105220933720    1.02086999604106   -6.76808628557387
H         -10.42843860558264   -2.50052769456974   -5.75681899882125
H          -7.64708441675226   -2.53140055301656  -10.29115503492572
H          -6.64862048173498   -0.39781510260405   -9.16456759295316
H         -10.29085404158300    0.88521692302976   -1.40464117050148
H          -8.70167970582735    3.94772557450881   -3.20014257227737
H          -8.49106864070143    4.73120744144407    1.03899316413107
H          -9.35735884711515    0.67965854110089    4.03033153126772
H          -8.67125616876036    0.00338962645981   -0.16982048151099
H         -10.06397621342381    4.14949130362948    2.35336642382005
H          -9.32305741198885    2.83788189921351    5.02065783737604
H         -10.80692652805081    8.67078244433619    8.37218438000055
H         -12.42085450857235   11.73573778593557    5.79102591493101
H         -13.20648341555582   10.36785641644338    0.98190256691218
H         -12.99496311888353    7.27476112805043    3.98741949539439
H         -11.25961821540107   12.01664621098389    3.86505925241718
H         -13.42462327802622   12.68191730438349    1.81148640118390
H         -11.28219772516532   14.33286997374505    3.29511649900093
H         -12.13569870012258   19.43106041230986    2.56982945978753
H         -15.20868768468905   17.20209500953058   -0.70053158960765
H         -15.33996091551613   22.45931117250186    0.12452600769496
H         -13.42663207049784   21.79017949178662    1.77141067954692
