122
 SCF done       -221.190791920566          0.000398737462
C         -16.15898415265866   -2.70019262246039  -13.91097222236662
C         -17.44514193448061   -2.22294735150883  -13.95787222770177
C         -18.54985798527378   -2.96959539452396  -14.41704217910183
N         -19.49128967874286   -3.51928549403132  -14.77808640392834
C         -17.86604325200411   -0.94090106373738  -13.54962272885289
N         -18.29438543518672    0.07799898545274  -13.23501010957800
C         -15.74593330323449   -4.04158647013921  -14.31331132557039
C         -14.35498547833380   -4.17905013921286  -14.07545511222905
C         -13.66425995047918   -5.33346490043388  -14.35300404841674
C         -14.37916108235267   -6.40701228566925  -14.89341958594724
C         -15.76678988762671   -6.26191324001428  -15.12832503452910
C         -16.46570971266609   -5.09322509021691  -14.84628668286828
S         -16.44517818628929   -7.71112188312508  -15.80013360636493
C         -14.89759898123784   -8.48268417334424  -15.76155471567096
C         -13.91365140269284   -7.69841637184688  -15.26994496005283
C         -13.83853632997165   -2.92174433596857  -13.51416368066346
O         -12.68440624018473   -2.69853121328974  -13.18319825827039
C         -14.97761973841905   -2.00372508947267  -13.44181190866478
C         -14.92238944916037   -0.69443093669103  -13.02870666411959
C         -13.84840917120681    0.06206465500605  -12.54596572474408
S         -12.19397355602071   -0.50284159046617  -12.28464455226749
C         -11.75543316393627    1.03565055726895  -11.69841465141825
C         -12.82977617559986    1.96641912263110  -11.70981830397891
C         -13.99695357729229    1.40875432487138  -12.18399159110944
C         -12.38309016612579    3.25648350155203  -11.19557469729621
S         -13.26268227222844    4.61922277139414  -11.02480153787143
C         -10.98278783249135    3.04336970288491  -10.86864198731008
C         -10.63202416732616    1.71651848353560  -11.17927504752295
O          -9.35819734984844    1.47661411215962  -10.87882470002529
C          -8.85403559625187    2.64047444500220  -10.36271811465833
C          -9.83324969056716    3.63500777171826  -10.34378809910882
C          -7.50216894221272    2.63315138130478   -9.92668696631805
C          -6.88051248731726    3.68492800277458   -9.34718907935517
C          -5.53758436172562    3.70714748270440   -8.83320656824921
C          -4.65108723340627    2.66222245529508   -8.98532754595539
C          -3.37348099539770    2.72333115596875   -8.39835354727709
C          -2.33762857353598    1.79818927160618   -8.37443048029713
C          -2.32771835977500    0.46588378964723   -9.04508435444628
C          -1.15064543369368    0.33073473351875  -10.02995552666137
N          -1.49637426943401   -0.63165213972260  -11.05706170885378
C          -2.34760108761153   -0.67206984438481   -8.00825878513648
N          -2.56216394780438   -1.95680847892355   -8.65738120194042
C          -1.28912451709529    2.36962323834724   -7.56156110752959
C          -0.10006893292774    1.88594409815007   -7.15621492051944
C           0.78957069266799    2.65703483925792   -6.23783461861814
C           0.30962672951769    4.03238008926196   -5.91170833896690
C          -0.88392077077720    4.50154243546312   -6.31829831102019
C          -1.73100849038571    3.70333027215334   -7.12334225971543
C          -2.99563209395537    3.90529610932234   -7.63507304215964
C          -3.90762209949791    4.98135318102748   -7.52670905465213
C          -5.12814673893156    4.87813896882316   -8.10684810409995
C           2.20394329519222    2.60709222486381   -6.75344447657957
C           2.86560064102782    3.64844656484249   -7.26295809399058
C           4.22467708619493    3.60158972606184   -7.71124541297507
S           5.15409534364478    2.11046143804527   -7.64995566508697
C           6.53328318546393    2.92339125544534   -8.24512420649011
C           6.28661484218632    4.28677612801577   -8.48712525720618
C           4.97477610223039    4.65795556188022   -8.18370144929521
C           7.50256347550876    4.93308458672141   -8.96827802394317
S           7.69533453972905    6.50454227846098   -9.36330087604449
C           8.49229635601181    3.86629016638091   -8.99532148211852
C           7.88987714861323    2.66989761482841   -8.56156642475050
O           8.75194218648012    1.66535003378599   -8.55714310307986
C           9.95272595664929    2.18471423781661   -8.98319459448877
C           9.82182647307013    3.54776892774322   -9.26612996970870
C          11.05490850598283    1.30756085011773   -9.06425932688745
C          12.32495316547630    1.67576769834600   -9.38884988556290
C          13.37149503065872    0.73494948390288   -9.45223263696147
C          14.68062730561144    0.92958800080826   -9.78811362825751
C          15.40078318528430    2.05730222955530  -10.33585964174879
C          14.91032834898936    3.03423564669356  -11.16509072956842
C          15.69678747222855    4.07317807232798  -11.70454085947704
N          16.28106136388714    4.95130561872923  -12.15833446769562
C          13.59707031760790    3.07592041031619  -11.67592783361998
N          12.55993205097798    3.14834321244920  -12.16358697848372
C          16.81542351866468    1.85540506940389  -10.03024916593168
C          16.98932121690346    0.54237644229726   -9.52171879128725
C          15.67400001048529   -0.11405450278642   -9.41785239754760
O          15.43283624770418   -1.24630047855068   -9.06124799159673
C          18.22148888608741    0.04126615171334   -9.17814886099624
C          19.33260839213820    0.87627297001243   -9.33090370074440
C          19.14660027065278    2.19023090598270   -9.82257910192572
C          17.90135853533540    2.69568017216920  -10.17897587820559
S          20.65367505824677    3.04611260185886   -9.91355170754500
C          21.50274989271958    1.66464584353416   -9.31080073739849
C          20.70220816490477    0.60874696849815   -9.04907521751438
H         -12.60508287097284   -5.40503327172238  -14.15988219492538
H         -17.52238634493503   -5.03454871692784  -15.04612197918394
H         -14.81988839211867   -9.49231072800518  -16.11556121060254
H         -12.88901954883340   -8.00844842285084  -15.17123528037712
H         -15.84617685038752   -0.13069148382236  -13.07529359417059
H         -14.93510667567837    1.92749111885538  -12.27209179078583
H          -9.71338929841619    4.63912953839386   -9.99408633584995
H          -6.99255278414851    1.69162260417249  -10.07048568207352
H          -7.44324839551812    4.59957693210263   -9.21582998916799
H          -4.92884604490083    1.78629354489359   -9.55042352079067
H          -3.23586485484333    0.37723164030723   -9.64940656417002
H          -0.23478544103053    0.06858475761855   -9.47514145676899
H          -0.98093658654565    1.29773139647116  -10.51570082853618
H          -1.67839574666403   -1.52882980540852  -10.61559741215562
H          -0.73215200947810   -0.74286053908900  -11.71412305429167
H          -3.11805917674608   -0.43548743821189   -7.25358690402050
H          -1.38548674642136   -0.72152033907428   -7.49166282420889
H          -3.47822315736280   -1.97428504651155   -9.09517523428249
H          -2.53289158151081   -2.70599595203499   -7.97384129619778
H           0.26140047527349    0.91445478197700   -7.46037958914687
H           0.79874584520619    2.08916413023724   -5.28901350003968
H           0.96238301410052    4.62405302976166   -5.28795582380122
H          -1.21228723508801    5.49143097520063   -6.03648947198692
H          -3.62476467922681    5.86766220200963   -6.97816603187881
H          -5.83710120489864    5.68921681127065   -8.02354433830578
H           2.68534538049113    1.63888205124493   -6.70161871265320
H           2.38733296450649    4.61562768819786   -7.33843323715612
H           4.58522367883783    5.65360529387157   -8.29379611412989
H          10.59318006350415    4.19154230563332   -9.63483829939106
H          10.83789836633128    0.26821809070386   -8.85448988044205
H          12.53910887594752    2.71597821063095   -9.57433994499537
H          13.14165366556598   -0.27233015435244   -9.11793873594510
H          18.32412153619857   -0.96475989928925   -8.80189369058889
H          17.80973462265935    3.70577852467682  -10.54248172043935
H          22.56625487080426    1.73105422655693   -9.18738420223266
H          21.05307550763421   -0.33352199843071   -8.66871499540738
