122
 SCF done       -228.485491911087          0.000457761891
C         -19.75699266235288    7.75287627170905   -5.26204590864427
C         -20.19000010862769    8.39789265764534   -4.13653898831987
C         -21.46621998686640    8.98707989393567   -4.00017889672915
N         -22.48683163341299    9.48104450028347   -3.82385822503138
C         -19.44010534004248    8.56233678564107   -2.95212050478384
N         -18.89358461883948    8.72851140599954   -1.95632912267237
C         -20.51648311574620    7.57189026909304   -6.48844914421692
C         -19.72951765855657    6.84744280179831   -7.42125964410792
C         -20.18195637764603    6.52064654076573   -8.67805735167940
C         -21.46884093849746    6.92957789575152   -9.03595876409913
C         -22.24901992622987    7.65264563195022   -8.09912741283565
C         -21.79422938131307    7.98090426943405   -6.82867621881509
S         -23.80478322452366    8.05272541496436   -8.75435742872592
C         -23.40710310213411    7.26792216964014  -10.24304580722989
C         -22.16855601135283    6.72793968567490  -10.25833253212581
C         -18.42582739499956    6.53092447010607   -6.82707190628819
O         -17.54098972193576    5.86656877668653   -7.32275402391902
C         -18.44545261283891    7.13656708858468   -5.46102031021497
C         -17.42371325168032    7.06946369695956   -4.58934918174659
C         -16.09034181975129    6.52812922516493   -4.95019111692250
C         -15.19138755575658    7.66745588231641   -5.48991542047486
O         -15.45163106081530    8.43974004130340   -6.35747566123218
O         -14.02400402619753    7.66650964713173   -4.81326903902636
C         -14.04879675784519    6.69887156050280   -3.83756147077712
C         -15.25707788381771    5.99847876741784   -3.83290584032318
C         -15.49930649678767    4.98870575230259   -2.92020420742426
C         -14.46460804265126    4.71176055264748   -2.04415523939498
C         -13.24741395229564    5.39790823441978   -2.06346791902292
C         -13.01371314806635    6.42150546381145   -2.96406114549942
C         -12.34949930642151    4.74447345182164   -1.06781557883571
C         -13.29513836463651    3.72180558196125   -0.42621092402466
O         -13.07130590181168    2.98534189797684    0.48330918805390
O         -14.48807074993935    3.73881457441252   -1.08199656980846
C         -11.20009965433129    3.97708863213483   -1.69817678525024
C         -11.17389736932139    3.72907611707992   -3.03587520355767
C         -10.10161140425963    2.99471984896703   -3.59849169744133
C          -9.82917997057891    2.63597380101291   -4.90447800636061
C         -10.59259580867015    2.97079380543916   -6.14486227885688
C         -11.99414727999916    2.33186220819776   -6.13588405751696
N         -12.46030852469000    2.17006841151020   -7.50049092504110
C         -10.66089266495214    4.49565643200600   -6.35018759812627
N         -11.22396333679961    4.81969636485293   -7.65258280149518
C          -8.62102007220531    1.84350236323170   -4.86816957532678
C          -7.95212933942128    1.20427904029269   -5.84333834594775
C          -6.72555631020200    0.40583727761102   -5.55922717334856
C          -6.30073813056116    0.40396741311036   -4.12523135036578
C          -6.98489311832543    1.04632483036599   -3.15951215801160
C          -8.16073769890649    1.76743209495592   -3.47280695491444
C          -9.06980091851531    2.47439674850734   -2.70982293382429
C          -9.14781193660190    2.73805210272976   -1.32259274449574
C         -10.17974327581278    3.47614086279673   -0.83603503443340
C          -5.60553923347104    0.91863926347453   -6.43258166457336
C          -5.14379984996427    0.28183947937144   -7.49499028849002
C          -4.03763088498360    0.80039780536206   -8.36729477395402
C          -2.86742648145931   -0.19364389508175   -8.40949511000954
O          -2.22591467594786   -0.60229868813366   -7.49268690483649
O          -2.65067383786770   -0.58469862967719   -9.69321694048265
C          -3.54244322458614    0.04333846971041  -10.52039715832673
C          -4.40668704211986    0.88354084280406   -9.81521927399018
C          -5.38835747218597    1.61173939438080  -10.45808930179348
C          -5.43888805585944    1.46279700210396  -11.83152444968163
C          -4.57429998207476    0.62120047391037  -12.53643448762043
C          -3.59978200455729   -0.11604834571267  -11.89375330161581
C          -4.95073976575826    0.72098359581135  -13.98565103421837
C          -6.00607339805225    1.83243677991883  -13.95046227124999
O          -6.54668922868788    2.34568145166945  -14.88476963530328
O          -6.29695509874937    2.13437927633463  -12.66678142908975
C          -3.85185066406892    0.86645606122114  -14.98707185869415
C          -3.48467645688506    1.92433195563453  -15.71827957736260
C          -3.89803214313909    3.32249867330928  -15.75316428811497
C          -4.08146621322236    4.13062925784563  -14.66895697333782
C          -4.40108385541437    5.50232911708646  -14.75478619224748
N          -4.66219860077932    6.61879232783477  -14.77834428824962
C          -3.83583541870193    3.68762197181788  -13.35533042736092
N          -3.56433840881797    3.35623760419118  -12.29011797771540
C          -3.77979911412326    3.76196884989962  -17.13294023597919
C          -3.00880780072941    2.80733971047811  -17.85006806139062
C          -2.68266103227250    1.67605502119892  -16.97090969743645
O          -1.98926768603727    0.71614548862165  -17.19608370768133
C          -2.67175619253586    2.98311008429870  -19.17239531279978
C          -3.12367290116391    4.13945684844703  -19.81345643533842
C          -3.90790332923354    5.07502055146751  -19.09180223461662
C          -4.24214610943220    4.90574645059629  -17.75383870767176
S          -4.36021926352676    6.41782210050970  -20.09037624772832
C          -3.51032226571168    5.73752468782200  -21.43432047215207
C          -2.91479859407701    4.55679625092220  -21.15822656147736
H         -19.55647901179017    5.96913259133600   -9.36264581131390
H         -22.42712948727924    8.53124498618200   -6.15282456242638
H         -24.13751444712823    7.25901461629410  -11.02864962957091
H         -21.75053818594460    6.20250845452554  -11.09770311794015
H         -17.51276502260421    7.47174922048236   -3.58996006764109
H         -16.19963973185874    5.80901716607651   -5.77487064952359
H         -16.42522107854501    4.43960911035609   -2.89640388981211
H         -12.08040300696026    6.95773067916282   -2.99758265516597
H         -11.96101702552795    5.42285753698013   -0.30391598947411
H         -11.96410537750040    4.08094576445145   -3.67941689048082
H         -10.06935040385203    2.54422657670884   -7.00637510159075
H         -12.66825534395640    2.94151276043208   -5.51146983964092
H         -11.92900037105115    1.33753047434492   -5.68042916376286
H         -12.47420657726034    3.08470164023355   -7.94528855522059
H         -13.40381882655564    1.79729772500980   -7.50877307056318
H          -9.64770749363209    4.90861379235355   -6.20260227075091
H         -11.30998861620678    4.94269609774790   -5.59368329736478
H         -10.59398103263892    4.51959857060424   -8.39010551799684
H         -11.35079642072189    5.82211346653264   -7.74300381117908
H          -8.27274356683694    1.23358506569005   -6.87609761618442
H          -6.93295486781616   -0.63121630422753   -5.86341434533537
H          -5.40015451760447   -0.14846913866819   -3.90562140458487
H          -6.64902636270810    1.01260233706172   -2.13329276245389
H          -8.38718393850428    2.34920925594721   -0.66229954950014
H         -10.26055731676369    3.67871282643390    0.22085730477517
H          -5.19814003303659    1.87431888282245   -6.13379216561184
H          -5.55503584448844   -0.67357818853496   -7.79344496395185
H          -3.67813284597633    1.75672413877552   -7.97624075192425
H          -6.05585491467259    2.27400640460539   -9.93434571688524
H          -2.91683221453203   -0.76301864320744  -12.41729950005351
H          -5.49773117118396   -0.19308388313358  -14.26801230643214
H          -3.35175866360604   -0.06378630307262  -15.23661206356332
H          -2.07651350178251    2.25007280957690  -19.69428506466057
H          -4.84796322206147    5.63431437946989  -17.24049908405128
H          -3.50970167223082    6.27225025548019  -22.36424625702003
H          -2.34396265077618    3.98879837240410  -21.87016463471208
