122
 SCF done       -204.420843456557          0.000418834311
C          -0.19899713672231    5.33496813727272    5.08339191448886
C          -0.16083360577357    5.81022349606679    6.37477712525324
C           1.00329702676496    5.85710768736744    7.16821783109396
N           1.90858062012271    5.92799748917773    7.87170236399920
C          -1.25188720370738    6.32155002703167    7.09806948713621
N          -2.09073981850585    6.75512159588452    7.75760540409798
C           0.95430285978196    4.82912254874682    4.34522227181915
C           0.53487842334853    4.47282481964342    3.03920720833283
C           1.39393135723238    3.96758416262728    2.09525468205250
C           2.73569358100696    3.80357819086445    2.45562878421148
C           3.14584993970887    4.15865326369094    3.76161104798279
C           2.27523889894598    4.67066268972711    4.71741483130270
S           4.84336993911200    3.87174440415091    3.98656635867701
C           4.98529341032860    3.29160214865597    2.36313103227815
C           3.82080830929987    3.30872425752437    1.67868054169127
C          -0.90935780860737    4.73656992192078    2.90822520137089
O          -1.58577233990833    4.55187182226933    1.91150503638718
C          -1.34613129469421    5.26090145929096    4.20568847750689
C          -2.62660706715367    5.62243952213123    4.55191191773395
C          -3.81278882694281    5.63468034746235    3.81441815570225
S          -3.98064926533829    5.14283282282166    2.15056795054694
C          -5.65538635950391    5.57215577419589    2.14370816807062
C          -6.06700839664518    6.08850624936951    3.37122243675817
C          -5.04264980487672    6.10147815111827    4.31781369993324
C          -5.23340129856393    6.58609176788085    5.71818942492833
S          -4.90014178252998    5.20187123343567    6.92819984095697
C          -6.64561048407436    7.10783945971307    5.98249466446713
C          -7.23315057246415    7.77164415133012    4.74457065742578
C          -7.39664428681684    6.71766998677123    3.65232059306398
C          -6.42232135466717    5.36400687148685    0.94085645401166
C          -7.77462927179833    5.11209707291736    0.97529243930420
C          -8.49049452997775    4.88393789928283   -0.21949399570291
C          -9.83396388048949    4.63338043880670   -0.45775355508308
C         -10.96972155493114    4.56913308868404    0.51045977110950
C         -10.81534695347598    3.38084835966193    1.47306453804611
N         -10.78034375402840    2.14466049337064    0.71205153670579
C         -11.13306834059390    5.89655031113525    1.26908788380904
N         -11.46183963713826    6.94598845687502    0.31933019559598
C          -9.97493414838721    4.45097672631690   -1.88291768512837
C         -11.05326234800253    4.17585441245248   -2.63833222765020
C         -10.94705287856885    3.97470404317791   -4.10885546617628
C          -9.57720876771454    4.20697709549242   -4.67499375075748
C          -8.51526153809580    4.50711045665665   -3.90697423041980
C          -8.65385062405637    4.61811693553362   -2.50153230266867
C          -7.76264231956423    4.88825867064997   -1.48530178107085
C          -6.36908796710415    5.13356185829851   -1.48700438107526
C          -5.72769875911913    5.36492499149705   -0.31674086154420
C         -11.95752996449116    4.82192459770292   -4.84001177861161
C         -12.17296988945145    6.10093385983754   -4.53352198269173
C         -13.12696868168834    6.94724819572088   -5.20463497690337
S         -12.67989218306431    8.59054743875333   -5.51794080014851
C         -14.20471231875577    8.90433098106570   -6.30478330611378
C         -15.01559606839128    7.78454504788030   -6.27175778605567
C         -14.40030029374939    6.67165285643835   -5.66227291116302
C         -15.11826866251280    5.36617139463166   -5.51150054489252
S         -14.85676675599150    4.67060180905290   -3.81319598869335
C         -16.61310594454462    5.52978514220934   -5.76382303180332
C         -16.84169561426488    6.30017090713857   -7.05903041159483
C         -16.37857731458348    7.74225588950591   -6.88303451285103
C         -14.53858083617997   10.17940791927689   -6.82959509067572
C         -13.70379319774949   11.13009311396334   -7.32313406442052
C         -12.31850007226592   11.07043534639737   -7.74256331664204
C         -11.69249264554422    9.97895780276501   -8.28720962253068
C         -10.36982649687404    9.99137403299101   -8.77157435352706
N          -9.29285909597107    9.94872484294214   -9.16687848350218
C         -12.34799142604858    8.75335394331400   -8.52270280098827
N         -12.86935993333758    7.76484631452869   -8.78727487395169
C         -11.81657224687905   12.43797274048002   -7.77074299340984
C         -12.91335739942786   13.32614705691335   -7.61637436481852
C         -14.14957499521442   12.54673045362207   -7.41625711644209
O         -15.28243793370493   12.95798089346681   -7.30435220257706
C         -12.76281159461259   14.69145008569412   -7.65634082750915
C         -11.47508393389831   15.20230620665872   -7.84648956791405
C         -10.38708691730582   14.30679556321512   -7.98478681392561
C         -10.53748206426308   12.92534677658408   -7.95301163981995
S          -8.89293841494502   15.16218443569806   -8.20133266668472
C          -9.72000713295543   16.67900435420512   -8.11397069824351
C         -11.05246498617994   16.55937167491596   -7.92793052581766
H           1.04168694927319    3.70726416338181    1.10912877042278
H           2.63936341144999    4.92448141242189    5.69875642206884
H           5.94803333390318    2.96885236216893    2.01721990747766
H           3.71695682078838    2.98549203719599    0.65861101884312
H          -2.74841555988436    5.96457501469640    5.56907888328749
H          -4.48910279577080    7.35191251798761    5.94755458841183
H          -4.01356373340867    5.85571702550304    7.67756286042919
H          -6.61782116339289    7.80255063614384    6.82310142958060
H          -7.28406135712853    6.26819519226106    6.26682774317049
H          -8.20091799038409    8.21422140409790    4.98525118518277
H          -6.57068333815839    8.56685020969093    4.39540603230958
H          -7.78962144026654    7.16685329822689    2.73726593864476
H          -8.11046666439237    5.96238494924434    3.99656112058225
H          -8.28148810838141    5.02712099935959    1.92139834993456
H         -11.89279541756019    4.42111836302623   -0.05851954388126
H         -11.63559122545569    3.41819076281532    2.21245526501464
H          -9.87023982984772    3.45626778842774    2.01459644310564
H         -11.66153242183555    2.00297721253750    0.22941099359759
H         -10.62865117155539    1.35242755980297    1.32576768142758
H         -10.22165634746290    6.10599368864063    1.85028847203593
H         -11.96858084890484    5.81214321734444    1.97087627303853
H         -10.70852671283888    7.04417151767135   -0.35454269387060
H         -11.57598100468065    7.83426021050937    0.79486815067671
H         -12.04659128572589    4.08362181532241   -2.22171729402025
H         -11.21126594665215    2.92222823654805   -4.29896699184556
H          -9.48911446064070    4.11937839233239   -5.74713190260411
H          -7.54294179446032    4.66273563392015   -4.35177687646722
H          -5.83008122976559    5.13095488598333   -2.42286649016744
H          -4.66506316300592    5.55542232355432   -0.30222369540175
H         -12.47508771598826    4.36037566788029   -5.66695040326100
H         -11.58149185689363    6.57399878783433   -3.75953955209500
H         -14.70095033134242    4.63176559781265   -6.20828919409182
H         -15.88076462197153    3.82069072507375   -3.88724599185344
H         -17.06292318496191    6.07594431038570   -4.93087552463064
H         -17.08227703333689    4.54478257267731   -5.81947977505169
H         -16.27780315590789    5.83090474774477   -7.86761360487642
H         -17.89918099224553    6.27995145679952   -7.32493542221069
H         -17.07582337779597    8.27766499528727   -6.22909063707902
H         -16.36813610528894    8.25567271010948   -7.84577362698434
H         -15.58517015349801   10.46297322303572   -6.76682950469396
H         -13.61384234653325   15.34571192994410   -7.54744799737526
H          -9.68170405017173   12.27865075546724   -8.05744530591812
H          -9.14694657333733   17.58085089182184   -8.20869607419560
H         -11.72677737466453   17.39284134910813   -7.84918906078494
