124
 SCF done       -209.592212362993          0.000905651269
C          -4.00202683495785   14.82166966019116   -2.99082775189790
C          -4.81389956307025   15.33575359911061   -2.00595095143369
C          -4.95231234375646   16.71204321042134   -1.73176411515471
N          -5.12211480226639   17.81197447039054   -1.44745683462682
C          -5.61105192818956   14.60447339264104   -1.10603754524307
N          -6.27574290016098   14.08324779399788   -0.32383590786020
C          -3.12376106088499   15.63150115975586   -3.82765334205282
C          -2.37908128537855   14.76342749734488   -4.65960722318428
C          -1.45125766750094   15.21348858860028   -5.56646200298028
C          -1.24528167749224   16.59350871771511   -5.65698268353163
C          -1.99394906702228   17.45565133415593   -4.82252681136229
C          -2.93319026830602   16.99788175083502   -3.90529015628520
S          -1.58104229553555   19.11819898102578   -5.10554233108659
C          -0.43304448047058   18.65284906262266   -6.31279271926003
C          -0.35671108069597   17.31737333642052   -6.50115440074476
C          -2.77724031245281   13.37092242177622   -4.39801777074730
O          -2.34386494394718   12.40305307365553   -5.00796384837429
C          -3.80228318713805   13.42667331256149   -3.34849088973885
C          -4.58238542093306   12.43814482636385   -2.77962860370705
N          -4.55806478759950   11.10906082962604   -2.80478694913672
C          -5.53197938750192   10.36406202793946   -2.12620291610553
C          -6.40156581130931   10.82559180625185   -1.17650260312436
S          -7.43638995915606    9.59506549371043   -0.59574093244872
C          -6.71545868288194    8.42965209369078   -1.63272912151032
C          -5.70203156762026    8.95642136896838   -2.38329036212560
N          -4.94699961470585    8.30598930492039   -3.33820017599449
C          -4.26969402354556    9.19445633935367   -4.25812470014048
C          -3.56198818749211   10.29185107926042   -3.46948068620583
C          -4.67948476287197    6.95518250451258   -3.37979766181787
C          -4.85171159569208    6.05298975871481   -2.40142823826209
C          -4.54812504931915    4.64267947641037   -2.51646226557616
C          -3.97678797474630    4.07935891194309   -3.63032412907386
C          -3.70682639325195    2.69594907668515   -3.67173578044536
C          -3.13618513267720    1.91128147777071   -4.65822918321800
C          -2.58297050046846    2.30898232456674   -5.99115439592445
C          -3.58651708684200    3.11038762362216   -6.85604259583502
N          -3.51420107151910    4.55511375302132   -6.66630486245740
C          -1.23494219137161    3.02665720488731   -5.80148194309237
N          -0.48595050249596    3.04241592263540   -7.05002181694687
C          -3.10002653727473    0.56099567912115   -4.14665928066206
C          -2.62852716514508   -0.57972430252057   -4.67977018198934
C          -2.66460232080871   -1.87348922495089   -3.93493790780702
C          -3.34177498091501   -1.79985851685926   -2.60569100820939
C          -3.81459652596806   -0.65205367044677   -2.08655570843857
C          -3.69911100710542    0.56300029292055   -2.80412173349046
C          -4.05517200202099    1.86467835725297   -2.52421670799732
C          -4.64348794217452    2.47216441334503   -1.38875310510815
C          -4.87008223841772    3.80832356774782   -1.39083989465668
C          -1.23203458515454   -2.36452116054330   -3.84965620006915
C          -0.55434792378732   -2.40056963803773   -2.70488902800889
N           0.75754957087757   -2.79588887520338   -2.52991012120447
C           1.35095107679127   -2.76212878187470   -1.28413549724119
C           0.73526148333822   -2.61421188075637   -0.07285638357657
S           1.85535706113951   -2.57714932258115    1.23497976913350
C           3.17915016518925   -2.78202119315213    0.16838225643514
C           2.77678809192237   -2.86714663103977   -1.13166164434666
N           3.57565978825712   -3.06453084670943   -2.25459807926421
C           2.86670892020159   -3.76807367512653   -3.30346353060748
C           1.60938764367903   -2.99696210402834   -3.68651412545484
C           4.85591915548672   -2.67236781530078   -2.31598339796047
C           5.67431327926084   -2.72217138508312   -3.40862477888586
C           7.02403062309764   -2.36851335638604   -3.31554503719570
C           8.00433145029360   -2.35733024649339   -4.27697889120334
C           8.07847237906251   -2.78042254314175   -5.65296098704532
C           7.29765729305151   -3.69048577021867   -6.32985800861920
C           7.50266015766179   -4.06438950314504   -7.67456403562064
N           7.58897288914815   -4.41804903558703   -8.76450689742720
C           6.22818793639652   -4.44519264325897   -5.81899262686499
N           5.34818302239825   -5.11346876685909   -5.49691703627609
C           9.28610659423374   -2.17745442685972   -6.22529815270688
C          10.02741192301404   -1.55786417648244   -5.18890569569342
C           9.27814820322164   -1.68654112104787   -3.92703868824456
O           9.61118258200295   -1.29702811152452   -2.82611836330957
C          11.22777124947163   -0.92839006490723   -5.40734842554220
C          11.71939905654928   -0.89482384275368   -6.71627716090762
C          10.96410559164463   -1.49701379262405   -7.74827085021131
C           9.75222198054200   -2.14143459280787   -7.52502933762294
S          11.74948688704600   -1.31942139527486   -9.28705535066736
C          13.05835066056895   -0.46309729573166   -8.54735468730939
C          12.91955395684902   -0.31125559833854   -7.21253327668568
H          -0.90167907330889   14.52088988121476   -6.18503152042793
H          -3.47754831572376   17.69983724487543   -3.29683934931034
H           0.12218582558715   19.42130616589113   -6.81465645001028
H           0.30022010791905   16.84569708532919   -7.20953358803801
H          -5.39589186213433   12.81302994055418   -2.17574711024596
H          -6.49491939017448   11.80654759112665   -0.75286072285160
H          -7.10490034786978    7.43425638279042   -1.65459247339688
H          -4.99352381436954    9.65288866988398   -4.94543298670393
H          -3.54107937335681    8.63245798894154   -4.84141106136884
H          -2.95745594094088   10.90972716070778   -4.13504982779120
H          -2.91627098503533    9.83438957801372   -2.71023561290394
H          -4.26671755222938    6.64711563122693   -4.32986461358001
H          -5.22590485943782    6.37165474988858   -1.43976292441530
H          -3.72891096625499    4.66422157196433   -4.50026597276785
H          -2.36605764016122    1.39122860279452   -6.54606395590788
H          -4.59508936656434    2.79504492263241   -6.57711147127371
H          -3.42988253004177    2.83049762153879   -7.91054090178688
H          -4.32421179997084    4.99248878107444   -7.09199999335418
H          -2.69019196374891    4.93336062762046   -7.12230860012651
H          -0.64483042996907    2.45400319662592   -5.07958925741610
H          -1.41414112529965    4.02255204402424   -5.37100275571782
H          -0.96781143410844    3.59624706623921   -7.75004192444708
H           0.42875469285464    3.45645095842129   -6.90733367809530
H          -2.16669232581572   -0.60606716620643   -5.65792353020308
H          -3.21115827759314   -2.60076643559416   -4.55774982450126
H          -3.43740089752868   -2.73582973257375   -2.07482491169533
H          -4.29734676369619   -0.64333454546454   -1.11915602503704
H          -4.90237758771883    1.86498605287953   -0.53287832206341
H          -5.31519396679276    4.28101831279680   -0.52575437018297
H          -0.79194786773634   -2.63220175748478   -4.79739455796676
H          -1.04588582658613   -2.09843772761360   -1.79415547033353
H          -0.30605610251693   -2.51527135105874    0.15022595002102
H           4.17216964874912   -2.84274844358481    0.56418607212428
H           2.57908446430096   -4.75337807440053   -2.91700290569930
H           3.50382614759152   -3.91948398624059   -4.17196437891863
H           1.06020338044740   -3.57758689233257   -4.43096455555282
H           1.87977112132217   -2.02803245266664   -4.12981388068277
H           5.24733559270359   -2.27175049722332   -1.39013191475035
H           5.28736355525916   -3.03477756069381   -4.36030609530354
H           7.36510810306211   -1.99963792307078   -2.35208946783902
H          11.76936447294746   -0.47299243491075   -4.59272459993616
H           9.21544469187266   -2.57585186062738   -8.35139483611939
H          13.86266979859899   -0.12118005845825   -9.16934538229254
H          13.63268474802294    0.19406949988048   -6.58646323621346
