120
 SCF done       -199.512864465612          0.001980109679
C          -3.81613529667026    1.25238719734867    3.55959283459900
C          -4.21022941920602    0.87323880380293    4.81421321771771
C          -3.50622822854193   -0.04608742276832    5.61974423591147
N          -2.98044750744202   -0.79231657307976    6.31525829941955
C          -5.34218876007775    1.37680365232838    5.49152854961695
N          -6.22085108948659    1.75581971079680    6.12521799464670
C          -2.59776042530907    0.83805664686099    2.88134982223885
C          -2.47097943053576    1.57858167615523    1.67925999631198
C          -1.41192889370742    1.41297925862673    0.81896347639178
C          -0.43437199452320    0.47321684196583    1.15794649998459
C          -0.57294296442214   -0.26580368662826    2.35785652851994
C          -1.64147439882214   -0.09832682476585    3.22950829490339
S           0.74507161776641   -1.37556003002856    2.56817566189920
C           1.45616900738059   -0.85025668586216    1.08118426688556
C           0.74637690895661    0.11029263326411    0.45044054526952
C          -3.62149469812894    2.49063243027538    1.52987616472074
O          -3.82101702346359    3.24917061972297    0.60687035337566
C          -4.50117553568869    2.20738908933495    2.69819377229511
C          -5.79729354819604    2.58125974089413    2.80755496521349
C          -6.48601989778115    3.54459654352033    1.97856303811297
C          -7.78214564399252    3.22971679564171    1.52842183878816
O          -8.28480586926522    1.99027297787394    1.84898938241879
C          -8.42407091077654    1.08461711776827    0.76835850148854
C          -7.07636573442333    0.65855135528527    0.19353417825402
C          -8.50379115208447    4.14764810225854    0.75886055938904
C          -7.90814128068870    5.36536937685832    0.43933079597598
C          -6.63737194411175    5.68146551240527    0.88607146301749
C          -5.92862381344868    4.78200396079209    1.65557813363138
C          -9.87601472011719    3.85690806738834    0.30965352106193
C         -10.80666828211216    3.38157377741439    1.19165894612187
C         -12.12399557799500    3.10195408437329    0.75242438344095
C         -13.23933577111960    2.60941978381885    1.41028132175732
C         -13.42914526943163    2.14878216870712    2.81797513773450
C         -13.08803476645982    0.64584335662491    2.92028646427664
N         -11.66272226042693    0.42847633090130    2.76035348021468
C         -12.66312389787720    2.96977722109992    3.86427273459101
N         -13.35087532694681    2.86711222295798    5.14624057188508
C         -14.29957813930463    2.53358140272415    0.42844877715088
C         -15.58911182192040    2.16537911931855    0.53968607277241
C         -16.52337946304028    2.33998311763205   -0.60564756011988
C         -15.85495626520193    2.51316151215407   -1.93472829310555
C         -14.56038498013123    2.87772999912551   -2.03070390213096
C         -13.76155770891447    2.97020713493539   -0.86813350153421
C         -12.44650994121151    3.33206144879378   -0.65343307454034
C         -11.46210638562781    3.84211766832495   -1.53061453377157
C         -10.21518937118600    4.09726814023999   -1.05855939921745
C         -17.16744464178167    3.69162300788110   -0.37670903562630
C         -18.46017144318417    3.97971936792939   -0.49169662807228
C         -18.97989268509689    5.32973778693009   -0.27607662739063
C         -18.22346125257581    6.46819944401389   -0.58390387813248
O         -17.03558636039886    6.37829533791601   -1.28097055064869
C         -17.16665797214997    6.06301790668503   -2.65929337925626
C         -15.77756927824738    6.10326965956508   -3.27253270250056
C         -18.66580245640467    7.74402138689257   -0.19125783265227
C         -19.92092051167064    7.87313496576498    0.40451016347849
C         -20.69864192090864    6.75912429922040    0.64599271320778
C         -20.22627578089081    5.50038098515687    0.32308971798789
C         -17.84160800647531    8.90887653390546   -0.43564688117540
C         -16.49392831657897    8.96309063884106   -0.38486387737755
C         -15.51565666501278    7.98372890054980    0.06862544593707
C         -15.66120510025276    7.10285192133064    1.10347767417580
C         -14.63985766280406    6.23167567334025    1.53216458981402
N         -13.83663948391775    5.50316578559280    1.90881138996504
C         -16.82086779095006    7.01207733336616    1.90058641477577
N         -17.71445667575246    6.92779250822605    2.61551072874091
C         -14.27552292808924    8.26488307050991   -0.63768328210779
C         -14.39382411439641    9.52386335068622   -1.28375182016380
C         -15.75186428626363   10.06065043451054   -1.06978249948419
O         -16.19711823519728   11.12530771297011   -1.43089276658382
C         -13.36341741840394   10.07690663547506   -2.00656432621619
C         -12.17101711901331    9.35377735016450   -2.10339068557928
C         -12.07374310274179    8.08929690418125   -1.47321826401014
C         -13.11023737284659    7.52836532070765   -0.73806198468976
S         -10.51592265498342    7.37560392899098   -1.73759427339099
C         -10.01380655058990    8.75011592671192   -2.66317773509653
C         -10.96608100308178    9.70044573067803   -2.77833573395064
H          -1.34195528087692    1.99298742081931   -0.08815570723935
H          -1.70676820486383   -0.68777263221324    4.12897775411827
H           2.37675108766244   -1.30192261437772    0.76643689697578
H           1.03475800910332    0.55615147232433   -0.48429143980764
H          -6.42747334173735    2.08365682612284    3.53533495197276
H          -9.04551192200330    1.52155463837704   -0.02369774866502
H          -8.94517577664913    0.22673154858477    1.19877839579931
H          -6.46915510432989    0.18538238197359    0.96266634047727
H          -6.53658927932506    1.52293425010378   -0.19048260727375
H          -7.23099177195078   -0.04748010953527   -0.61826235641139
H          -8.46948171303774    6.07941828877951   -0.14559342972134
H          -6.20204347118357    6.63764304484446    0.63854524823081
H          -4.95106616740609    5.03556060275382    2.03272929432546
H         -10.53442553413220    3.21614202629816    2.22014861257881
H         -14.49057488860607    2.25457944408955    3.06576941841099
H         -13.69866999879338    0.10358202981522    2.17506158322207
H         -13.37080051337166    0.27874328230656    3.91140590780712
H         -11.35182993408877    0.80368994990029    1.87062889479242
H         -11.44878708537108   -0.56174191555269    2.78203873641956
H         -12.68069166956900    4.01867111090420    3.56356555544956
H         -11.62402457117687    2.61803814518879    3.91268168072952
H         -13.24514562842060    1.92904540691118    5.51954250357892
H         -12.93227619239064    3.50500885795110    5.81424271846113
H         -16.02168299781328    1.84970718561506    1.47870834673444
H         -17.28892495108205    1.55965887615136   -0.63423119779708
H         -16.48686430749023    2.43002312755439   -2.80558600517932
H         -14.10792910464842    3.05925550719675   -2.99627385511870
H         -11.71190888089539    4.02055405583136   -2.56712558341300
H          -9.44325906240924    4.46763442436438   -1.71756170712586
H         -16.45246272517999    4.46935967003051   -0.15373444640272
H         -19.19197027466248    3.20358949456496   -0.67714335124562
H         -17.82393006719287    6.80098566432014   -3.14158746765803
H         -17.61395608599966    5.06756218527420   -2.77915414811905
H         -15.36045240099932    7.10434191001669   -3.19102686300773
H         -15.82971765612692    5.82289580090129   -4.32062770728989
H         -15.12613387830142    5.41041186070766   -2.74570275167930
H         -20.26066793805601    8.85346501869895    0.70141028286795
H         -21.66776909152345    6.86794512026358    1.10792918935844
H         -20.81471798473578    4.62579244526366    0.55816462220218
H         -18.34997704375647    9.80983347485308   -0.76174760673566
H         -13.47430094917714   11.03881022201896   -2.48277287483187
H         -12.99574712969095    6.55669728134912   -0.28580264133693
H          -9.02200885916348    8.75992420632271   -3.07179021529255
H         -10.83589301754756   10.62183383382927   -3.31664382370010
