108
 SCF done       -194.885529988205          0.000801641444
C          -9.39735767290141    2.81198959870239   -9.25221786545335
C         -10.46556693744787    2.03810511693684   -9.62819548427911
C         -10.81941276528950    1.77937751688119  -10.96844993601012
N         -11.16057715866315    1.52917856688415  -12.03622552149773
C         -11.34737888462594    1.36360242720720   -8.75741244091203
N         -12.10667075854983    0.76671552795286   -8.13580508392854
C          -8.45158026571273    3.44486974456109  -10.16809702679791
C          -7.44016469096362    4.08268198177740   -9.40649788704048
C          -6.39554426859496    4.76390162119095   -9.98226629584557
C          -6.34532825970472    4.82202225269039  -11.37850579913700
C          -7.36003353969207    4.18571303269797  -12.13111705146323
C          -8.41662317685335    3.49473144225665  -11.54785613819195
S          -7.09931701115341    4.38835581136337  -13.83498403257104
C          -5.66297291711753    5.30332109547758  -13.53121945943683
C          -5.38530882461902    5.45473368553715  -12.21804525663830
C          -7.72067490142161    3.88329616865333   -7.97598758557801
O          -7.04211271270454    4.28749283142546   -7.04348722171966
C          -8.96722748447795    3.11925952475885   -7.90405517944030
C          -9.63509924198697    2.80632942980225   -6.74425766757742
C          -9.28021148586607    3.06053459585024   -5.41905747055032
S          -7.82007473750284    3.77288285532715   -4.79460363967397
C          -8.30746012883714    3.57076298952067   -3.15121583475735
C          -9.58911997409036    3.00220843224948   -3.06108029651744
C         -10.13073421539255    2.70188630803242   -4.34750485550912
N         -11.34044975735667    2.14828191567312   -4.50258615945980
C         -12.00814521682580    1.91723913702497   -3.40478528254295
N         -11.64114999474844    2.23582061504782   -2.15664245577513
C         -10.46352444414045    2.77858231579719   -1.98091400510415
C          -7.41494027399243    3.94293104743455   -2.08947854373085
C          -6.50899051480833    4.96464762311100   -2.28714803245224
C          -5.59864113643255    5.30799838082470   -1.27203042872120
C          -4.59225146669571    6.26800723974653   -1.22069652490078
C          -4.19806261527178    7.28235212877562   -2.23455109247768
C          -3.36618602390805    6.66887705904711   -3.38796921998123
N          -4.12220725161249    5.65029313633046   -4.08499037961693
C          -5.39267046069009    8.04825468751222   -2.83213488957363
N          -4.92234298026762    9.32331088997512   -3.34862997551491
C          -3.94139468750939    6.11627985700465    0.05930957801384
C          -2.88097500487395    6.74864012471882    0.59656720650136
C          -2.39724195440720    6.42951151280820    1.96615000189541
C          -3.09659517493359    5.28267833192016    2.62847904276202
C          -4.15514699921510    4.65794425624208    2.07537532532763
C          -4.61507752996603    5.03434587507832    0.79406535856044
C          -5.61885176270280    4.55446729118339   -0.02374577238289
C          -6.55745277943045    3.51131895399861    0.14815122402373
C          -7.42899059178552    3.22028757360325   -0.84977739870996
C          -2.66342065981868    7.61207790061497    2.86135823033881
C          -1.76228608894745    8.09930294727420    3.72774139002431
C          -2.01832644230062    9.18774483061777    4.60752797688851
S          -0.81210925451870    9.70909781859537    5.71918908764320
C          -1.79598539741530   10.98269237231947    6.38405424720353
C          -3.04757307145925   10.98291099423586    5.74566741008014
C          -3.17210526396691    9.98132543272009    4.73439827379788
N          -4.29525260783286    9.84747769213337    4.00618573237882
C          -5.25668156667358   10.68456580472983    4.28019214666997
N          -5.24762212966011   11.66071071241548    5.19936489484832
C          -4.16905052538697   11.81756869020920    5.91806474773052
C          -1.42698027757535   11.77778192296915    7.47946047395509
C          -0.21164937134643   11.94318317383750    8.08212801087659
C           1.13910190364141   11.65195396625387    7.66657011735864
C           1.62302390291003   11.72360910558776    6.38353031261074
C           2.97101272862792   11.51079045753590    6.03804931273794
N           4.05334053558559   11.32495663252535    5.70303050523020
C           0.82960518642175   12.12089348563269    5.29002154489193
N           0.21796654966840   12.47942109138895    4.38629507453443
C           1.95478766431599   11.56751783701202    8.87281440989344
C           1.18902937019772   12.04363650898334    9.96884706700306
C          -0.16812117672166   12.38505488638683    9.50208827257483
O          -1.07804677864999   12.86780393929194   10.13804711911951
C           1.70097673539110   12.12604876207702   11.24091792758625
C           3.02056841007993   11.70821804326843   11.44246992908639
C           3.76993252944845   11.22260718986089   10.34404588062052
C           3.25746293930675   11.14919348551029    9.05344975547408
S           5.36690922405113   10.75167054062258   10.83171216170514
C           5.02788138377705   11.20395798064791   12.46657477366708
C           3.77852802459671   11.68440382144576   12.64728878891957
H          -5.64115388550307    5.23821441605576   -9.37375509487657
H          -9.16490405603962    3.02918397455727  -12.16692631743252
H          -5.10737780925894    5.67696639887436  -14.36927735403669
H          -4.53472443544155    5.99312379030895  -11.84064240469685
H         -10.58910433244729    2.29653455168877   -6.81961732326461
H         -12.97513835154170    1.44454988288814   -3.51033466383649
H         -10.21619127794006    3.07319870855291   -0.96898278360573
H          -6.49141638859866    5.49292790997852   -3.22624624633333
H          -3.55281305158250    8.01976925074609   -1.74532404941535
H          -2.41248808854572    6.30160503410640   -2.97402388375641
H          -3.15465719325083    7.48229141123201   -4.08460129383658
H          -4.10842696935802    4.77159110688996   -3.58128390772979
H          -3.76567512768026    5.49239827717900   -5.01800770430892
H          -6.18089446538036    8.14875829669377   -2.06767568473705
H          -5.79088648285898    7.48000518043863   -3.67297137602787
H          -4.67350069539738    9.94709984962524   -2.58749242442199
H          -5.64691053586281    9.77494625388704   -3.89441686203496
H          -2.35703416425412    7.53946290077809    0.07739599724177
H          -1.31532449389804    6.24583539294985    1.93980984680837
H          -2.72752559257902    5.00784324152282    3.60430195518540
H          -4.64524705496734    3.84555164153693    2.59219724417005
H          -6.55981474848917    2.94334352360273    1.06664766772881
H          -8.11509434829777    2.39453083500793   -0.74623598368787
H          -3.65564739916066    8.03430670617908    2.81953402210294
H          -0.76924787494246    7.67094360559915    3.78812017420437
H          -6.16718015759681   10.58799780426972    3.70381840624227
H          -4.17995293773863   12.61792562450741    6.64667649546001
H          -2.25192991141900   12.26025563469259    7.99631970703710
H           1.10210342054003   12.50137162021962   12.05611218367337
H           3.86094755732371   10.76837469995301    8.24580902420472
H           5.79808535637811   11.07893621650751   13.20260222849097
H           3.39117965789356   12.01372572179420   13.59441228167105
