128
 SCF done       -232.175839306377          0.000990726257
C          -2.76002544197533   14.74989775664051    4.79623762341629
C          -3.34623229333785   15.76190410953810    5.51869137700838
C          -2.70685937057316   16.45987531798642    6.56200535652613
N          -2.23869126895770   17.06979445763863    7.41529661505067
C          -4.67233562083587   16.21175711764117    5.36068491818216
N          -5.75057802643291   16.60594086617855    5.31015690245104
C          -1.42828047860863   14.20254314284783    5.04455803334142
C          -1.23385218435151   13.08904595434228    4.18953747724243
C          -0.08074920454378   12.34375649601462    4.19242702792875
C           0.93388643132086   12.71588023069628    5.08076717789208
C           0.73335143798703   13.83055332008641    5.92713027384364
C          -0.43622475001931   14.58405701419844    5.92530510437062
S           2.11669352045708   14.10876414534854    6.93805249893985
C           2.93385231066536   12.75615734581791    6.23416710604154
C           2.21143249068037   12.12196207220015    5.28526798169800
C          -2.43609521214314   12.90824123132376    3.35921972995442
O          -2.61040105167613   12.03039826248446    2.52583298768156
C          -3.35194539759587   13.98687140074638    3.72193505959445
C          -4.54395466315859   14.28369567653425    3.08754496564726
C          -5.22687902913102   13.59365817089098    2.09401442219630
S          -4.78523868272295   12.05056341232004    1.42721071044019
C          -6.19593957325923   11.96660839736431    0.43411986438302
C          -7.00013323595124   13.12563718127319    0.57353742953084
C          -6.44810294533044   14.04785573979037    1.51017108891880
C          -7.11428616002266   15.24358009973374    1.74391950851389
C          -8.30212792110595   15.52942643027314    1.08656112868540
N          -8.89372548599773   16.79775266586321    1.35551823228403
O          -8.25129940697265   17.60504386050660    1.99292804340549
O         -10.01815328281676   17.03103023190630    0.92634156662473
C          -8.88631991794464   14.60001803668431    0.17050874780600
N         -10.04684711143473   14.84865989618723   -0.46685923326808
C          -8.19932066812714   13.41109105169657   -0.06951383576936
C          -6.47064988273419   10.85692843022537   -0.38934509839291
C          -5.67877687212759    9.75337188713730   -0.45970200446294
C          -5.93477148285218    8.57377671916385   -1.22770435081542
C          -6.95441275192238    8.48893068355852   -2.15586820496988
C          -7.21613873419185    7.27654634609123   -2.81859011153017
C          -8.19433244275339    6.92277433609148   -3.74109273235511
C          -9.26570320563821    7.75046820049351   -4.36675282023780
C         -10.47005753154662    7.96435549163586   -3.42317762625265
N         -10.08199179082924    8.66724221969651   -2.21211382077341
C          -8.77104609112063    9.11078004570629   -4.88613691897034
N          -9.71155009321093    9.61116403489538   -5.87509313704014
C          -8.02056161218284    5.51156270388325   -4.00508111512786
C          -8.72572723605559    4.66167421873340   -4.77319317624561
C          -8.37126261419868    3.21133132588735   -4.86240641466334
C          -7.18550992509287    2.80807537609366   -4.04749897938828
C          -6.49670979561509    3.67014101981971   -3.27973138341404
C          -6.87410023776224    5.03418364365031   -3.21895251672150
C          -6.39149710280696    6.11064418090880   -2.51013522914604
C          -5.31630653495674    6.23871975535502   -1.59637146912011
C          -5.09751158224728    7.42782335540388   -0.98825254859760
C          -8.23886926779950    2.87485818252139   -6.32542121345235
C          -7.06936426930767    2.63963582159162   -6.93224371712941
C          -6.90481319847455    2.31292491277935   -8.31504798728849
S          -5.54690991753235    1.37153429236517   -8.78916731224757
C          -6.08881935868571    1.20708916695969  -10.43988095425120
C          -7.26271359795178    1.97073743467271  -10.63363649641590
C          -7.72098414175988    2.59750132225557   -9.42356428035934
C          -8.81703770168073    3.45679358940725   -9.49056223795493
C          -9.48573447958915    3.66714561617814  -10.68236393133943
N         -10.59248241265607    4.56083028637366  -10.64619494004038
O         -10.89487609638418    5.05124773741292   -9.57343717821189
O         -11.19721582124474    4.79739593085008  -11.68152402840774
C          -9.04430120701344    3.04413347511805  -11.89762643356180
N          -9.63440920955195    3.22591865694708  -13.08441741806589
C          -7.91526137810194    2.22616255316784  -11.82783063960328
C          -5.35656264507730    0.39661691836848  -11.31522359707520
C          -5.78014989840273   -0.15048003944840  -12.50246510404568
C          -4.90325675786579   -0.91219727385022  -13.28274218201650
C          -5.11677642254738   -1.67004988702016  -14.40820269050319
C          -6.24249858393627   -1.93078758470130  -15.26820347840122
C          -7.34724295962989   -1.14916506692204  -15.52096994201895
C          -8.37086245784213   -1.49637421743654  -16.42974035242052
N          -9.25482723085605   -1.70406753878998  -17.13326333563408
C          -7.63081284173995    0.13306318026452  -15.03131504325534
N          -7.97511289725730    1.19442590876178  -14.74570627845200
C          -5.94642015645250   -3.15977704174065  -16.00874995762974
C          -4.59815336681085   -3.52701073868766  -15.77154552276617
C          -4.01234002093691   -2.58307569178418  -14.80633262555854
O          -2.87638602774686   -2.56350391525812  -14.38256372525060
C          -4.01300284432712   -4.62406634188780  -16.35407394762029
C          -4.79878616913470   -5.40927996976338  -17.20387767324004
C          -6.14947485691197   -5.04877287163783  -17.41857936048449
C          -6.73893706136467   -3.93282328227706  -16.83471941085094
S          -6.93701924646080   -6.16929399516442  -18.48502547791069
C          -5.47931882752266   -7.08813809961513  -18.63509793789555
C          -4.44752641532622   -6.58722916860145  -17.92146197970962
H           0.03529340509540   11.49924430426076    3.53086481040782
H          -0.53808504151539   15.42589543426947    6.58937240535110
H           3.92037766757777   12.51687635185035    6.58078742084925
H           2.55673786508224   11.26222099972282    4.73984998795019
H          -5.03224131721649   15.19640496973044    3.40169912180475
H          -6.73726617137076   15.98053416887983    2.43714988656480
H         -10.55027465284658   15.69920410973604   -0.25852550497290
H         -10.41244185450760   14.17445686314378   -1.11377696188051
H          -8.62362210143155   12.70716899402574   -0.76850902294228
H          -7.38348348528066   10.89985809911264   -0.96583805233600
H          -4.78572247835956    9.73806620659098    0.15334073509481
H          -7.57766496514097    9.34107484567841   -2.36442255586404
H          -9.65179327060527    7.20062294350444   -5.23230437598522
H         -10.93461148149876    6.98407046186350   -3.22333786361796
H         -11.18779403403956    8.58838806760372   -3.95996100437764
H          -9.52665046467339    8.05983981756580   -1.61776062133723
H         -10.90753246914877    8.94002663719422   -1.69071926334269
H          -7.74353707943417    8.99883353620502   -5.27192888706061
H          -8.75854809279100    9.82567158829378   -4.06310900747174
H          -9.71156893512186    9.01983990932410   -6.70017947934053
H          -9.45603664262211   10.54766188780881   -6.16665423862805
H          -9.57428598161643    4.98449431919007   -5.36138310841282
H          -9.24340223311273    2.64691604912334   -4.49094756279970
H          -6.91931223526128    1.76271899951987   -4.09451765025699
H          -5.65452164360165    3.33414461114753   -2.69243865616190
H          -4.68904732695811    5.38338076983414   -1.39234493818090
H          -4.28654467403363    7.53934462315462   -0.28337419678190
H          -9.16736380140929    2.83386690260381   -6.87472365761988
H          -6.16298348148466    2.62186318751593   -6.34069621076458
H          -9.14122041966930    4.01115347761295   -8.62457040874550
H         -10.44420022359359    3.82266933852695  -13.16405836874905
H          -9.25696181352176    2.73551083552282  -13.88216585618354
H          -7.54326031136473    1.82862430451188  -12.75490359512053
H          -4.35591793943630    0.14149102679779  -10.98424501245417
H          -6.80808143398826   -0.05051208345794  -12.80540795723874
H          -3.88260322548923   -0.98650373407967  -12.91554403954026
H          -2.98126722871035   -4.87046214932693  -16.15691227698684
H          -7.77540771470495   -3.71189494982160  -17.02612845335817
H          -5.48643270958013   -7.96117620024111  -19.25832272736909
H          -3.46616054234114   -7.02504685634841  -17.89308069590332
