126
 SCF done       -229.618810301534          0.000622355447
C          -1.38100567219265    6.30149227566446    6.32076969313827
C          -1.59745376820782    6.07347687943760    7.65760929250818
C          -0.70142309779086    6.44808539307500    8.67944306933010
N          -0.01990660356997    6.72717202606892    9.56070780469028
C          -2.74544582438515    5.47068261078780    8.20980558081398
N          -3.65680563776052    5.00853120502553    8.73728534315829
C          -0.22276944804123    6.98558875896810    5.75681032339850
C          -0.41106460427513    7.11798752691309    4.35781908420715
C           0.50929357892145    7.72722232849501    3.54073742605858
C           1.67528895643651    8.22692786974064    4.12987415329872
C           1.85757095991154    8.08590035965699    5.52574934476853
C           0.92430630794573    7.47222623070371    6.35364561270725
S           3.36950566782247    8.77060467807845    6.03430283367114
C           3.73588649744333    9.23137908118724    4.40760100197619
C           2.77629177717432    8.89147035953650    3.51961077848403
C          -1.69986117645925    6.51002966028746    3.98333147388185
O          -2.18488831316390    6.47668920451742    2.86628298576224
C          -2.26198112871326    5.95889918880669    5.22204000783926
C          -3.37614546316453    5.16824918106130    5.33155914366461
C          -4.30827388553373    4.75877625909331    4.36854005018368
S          -4.39969363370577    5.35617586686748    2.73386791924648
C          -5.83420676476168    4.44160518229128    2.42663547907772
C          -6.19111171383705    3.65392888118407    3.51299035521317
C          -5.34121746444738    3.83837614703248    4.60461660778812
C          -5.49872603789291    3.05098243588876    5.87753796074059
C          -4.48425814495412    1.90623332793578    5.86072445557099
F          -4.67807121174780    1.06540521904415    4.83163688808610
F          -3.21225543598571    2.32269887809377    5.76532493251949
F          -4.54785931431738    1.15849897257188    6.97300126879044
C          -6.90791324496622    2.44353880513986    6.08628457361481
C          -7.91943600047227    2.87273180233173    5.02841993841036
C          -7.32219621435829    2.68357453900623    3.63457335182903
C          -6.47450444254958    4.55880831808956    1.13471780606646
C          -7.84117185212544    4.58336673609444    1.00905955090580
C          -8.42904013878990    4.64891201013830   -0.27187174860984
C          -9.75963631665341    4.58833190539393   -0.65873385663466
C         -10.90632387323308    4.43021328429238    0.28735849882925
C         -12.15992366951621    5.23010853470750   -0.09972943725515
N         -11.79840774173380    6.51673283269298   -0.66976819496450
C         -11.26086634793101    2.93932442840051    0.45882309003560
N         -10.17439694898659    2.24846959454607    1.13330081561472
C          -9.77228414291656    4.62237399626052   -2.10184438687497
C         -10.76899797321524    4.52614654926160   -3.00099522262826
C         -10.51858452265981    4.60012685606652   -4.46596010550238
C          -9.08122951519445    4.74534337881922   -4.85389182902704
C          -8.09017503463865    4.81300071220815   -3.94714553208941
C          -8.37881618099214    4.74594169064894   -2.56365642066261
C          -7.57222000919671    4.74590750498236   -1.44399024689165
C          -6.16888642756733    4.79795606918938   -1.27342426914096
C          -5.64377055355776    4.70114057310647   -0.02662590708111
C         -11.29546570927148    5.76793375415763   -5.02607201644696
C         -12.06999094075343    5.67581818392980   -6.09759196358685
C         -12.86430298233103    6.76311603404211   -6.65846513343394
S         -14.58348574380089    6.59991112422516   -6.48113910180823
C         -14.88740187237931    8.04820396298900   -7.40699200073049
C         -13.69666839876349    8.63297201575294   -7.77574924139518
C         -12.55391087896162    7.90476592520503   -7.34880978421776
C         -11.24407021785831    8.44984125266125   -7.85359451587278
C         -10.02264058981442    7.57172442577898   -7.64587269195729
F         -10.17712012127142    6.30525970381074   -8.04562638464608
F          -8.96129976910883    8.04760066913645   -8.32398575004300
F          -9.62822249203431    7.53818439271067   -6.36268866662371
C         -11.45145655984538    8.72420785940166   -9.35545074216206
C         -12.44782250383725    9.86795819275324   -9.56630597202709
C         -13.48733945307660    9.95637931625019   -8.43218713657561
C         -16.24361808155158    8.43551078569998   -7.59191858420243
C         -16.84861681614281    9.07491533857022   -8.62461988365279
C         -16.43328552739133    9.39734602607109   -9.97463358694586
C         -15.51307590683640    8.71541014455425  -10.72876234743298
C         -15.19472720958870    9.03898093870365  -12.06340628105378
N         -14.87026015757345    9.27672136621208  -13.13884232159807
C         -14.81326597497457    7.57444915781382  -10.29161029785708
N         -14.23112164694416    6.62369503339093  -10.01682407860280
C         -17.34812652246174   10.41344571791551  -10.48024435705799
C         -18.42667474609920   10.55137415739679   -9.56776526094039
C         -18.20039101567473    9.66857279559409   -8.41031059210204
O         -18.92347479650848    9.48510488618636   -7.45801586199296
C         -19.47934162343519   11.40451638530972   -9.79627756878203
C         -19.46199870477052   12.16489293744146  -10.96960149270712
C         -18.37228763737731   12.03286541645654  -11.86443319513369
C         -17.31138445138003   11.16350797738264  -11.63995626271031
S         -18.55706649809951   13.07622657332000  -13.23829716620494
C         -20.06271442985735   13.66273588791546  -12.62094266815566
C         -20.41627194445316   13.11046965392531  -11.43988635998733
H           0.33541827720977    7.81405139607303    2.47933985455021
H           1.11133666852814    7.38723553581974    7.41110024597216
H           4.66253766651685    9.73622384486969    4.21490535827400
H           2.83097253448385    9.09660598003561    2.46570068789524
H          -3.56680743212743    4.77638558606116    6.32062728038501
H          -5.23268675379113    3.67068510713688    6.74023410518605
H          -7.26814067583260    2.71797392596152    7.07774930529621
H          -6.83030118990445    1.35442640749378    6.05905109158419
H          -8.82472122334988    2.27580323777084    5.13897521293864
H          -8.18506196952456    3.92285807394724    5.16634058781733
H          -8.07311174405678    2.81866912785447    2.86091928429547
H          -6.93188832909607    1.66585532445729    3.54301076447175
H          -8.47393567529475    4.57070900044385    1.88175385573914
H         -10.56868063292232    4.78507132061816    1.26663842981392
H         -12.79605095652927    5.31384695113375    0.79923373601651
H         -12.74088898224334    4.68611476657981   -0.84996232897782
H         -11.21015471661700    7.03174134718063   -0.02319674443078
H         -12.62981047683656    7.07050907086993   -0.84440087356921
H         -11.50339141867759    2.51620791949210   -0.53064593916049
H         -12.14929590961422    2.85536495029254    1.09210777222538
H          -9.34098553309033    2.27325581985645    0.55328898807730
H         -10.41656759026992    1.27529194028892    1.28459461766145
H         -11.80148722567429    4.41815238976189   -2.70792843248554
H         -10.91389581439190    3.68658463719892   -4.93462566763648
H          -8.88423267643353    4.79723004349912   -5.91295647146964
H          -7.06138786520452    4.91124883933480   -4.26185364921386
H          -5.52938120261380    4.90153581244676   -2.13732297850382
H          -4.57464958032637    4.72136499335313    0.12328492541164
H         -11.15241234003589    6.70478306101917   -4.50828401852702
H         -12.22040242489222    4.71868687745197   -6.58383346737371
H         -11.01241197796435    9.39281156866627   -7.33994796076060
H         -11.83094966105090    7.80753742004119   -9.81274281170449
H         -10.50384004909983    8.97371191490431   -9.83239973561790
H         -11.91574989898006   10.81863600464129   -9.62223668637176
H         -12.94618760899433    9.72071385722666  -10.52460276189399
H         -14.42317678221114   10.37760567115237   -8.79584825625904
H         -13.10790823112593   10.63745220785417   -7.66245759217047
H         -16.90679888677000    8.20151075276654   -6.76282281726417
H         -20.29244947086946   11.48062146229700   -9.09120801160682
H         -16.50090800667234   11.09979703358871  -12.34723891901711
H         -20.59819286673293   14.39705105626270  -13.19072536360893
H         -21.31804769207267   13.35308366026073  -10.90746668588071
