94
 SCF done       -191.549334359005          0.000611273698
C          -9.66051505323541    9.11231960770844   -2.64118290499457
C          -9.02321581615638   10.28527747022791   -2.94550420461834
C          -9.64597435785861   11.38745987459773   -3.57061328804053
N         -10.09111173187335   12.31478348134046   -4.07938002782912
C          -7.66703964576348   10.56834353051795   -2.67593172969088
N          -6.57677726607512   10.87242396102411   -2.48322738594107
C         -11.06612598635236    8.81890968255923   -2.87500659001846
C         -11.36192983628758    7.53288154236705   -2.35482626047550
C         -12.61614795642304    6.97490023661794   -2.42845243502889
C         -13.62795417721466    7.72010325918248   -3.03975901617535
C         -13.32345218080464    9.00325181739838   -3.55849844932956
C         -12.05590407569705    9.56692533373683   -3.48671173514938
S         -14.72119614218959    9.73836919246406   -4.27652296530197
C         -15.68093259086634    8.35441429290494   -3.88411699851658
C         -14.99484117598788    7.38162962974740   -3.24484378731017
C         -10.14826426532338    6.93949458705694   -1.77464273315465
O         -10.03182230636949    5.82302321246217   -1.32176695314286
C          -9.07444019953725    7.96256637629545   -1.96584933725999
C          -7.76347712724338    7.75926171497525   -1.68764396102628
C          -7.24583919955531    6.68038230875019   -0.91094875917780
C          -5.98516398137628    5.97977229746883   -1.19653170657884
N          -5.70478242203100    5.02200849585325   -0.36479800343232
C          -6.71022252640861    5.02625544323675    0.55431525793661
C          -7.70120506526894    6.07712213698071    0.23470459948337
C          -8.70930503177023    6.13500836477752    1.26574288251918
S          -9.90738951502205    7.24233308278067    1.43511453737627
C          -8.36210458268545    5.05810641172110    2.16013999848603
C          -7.12362150422915    4.39345986853806    1.69332008186106
N          -6.77968635249451    3.37190082592324    2.52786000864348
C          -7.68789236811402    3.35417286393204    3.45578574276077
C          -8.71862148391386    4.38876387311782    3.30327691531654
C          -9.79528000835992    4.56291299995420    4.21548700453484
O         -10.67316441449458    5.59406909649727    4.06397290484831
C         -11.53389634340980    5.46795138142054    5.09173505625228
C         -11.13308768857132    4.32066976484541    5.84615782123056
N         -10.02824575010428    3.79775461974420    5.24175789956662
C         -11.81842792279720    3.90489916761172    6.97685960184420
C         -12.90732366171396    4.69237269311693    7.31341163248467
C         -13.27980839956968    5.84337334470179    6.54852330245504
C         -12.61284508350320    6.26659903007153    5.41575769195630
O         -14.35974137724056    6.38603865659614    7.14137189315930
C         -14.61483969950752    5.58028691000758    8.21736663606723
N         -13.79063328820810    4.58163778765909    8.34632581331803
C         -15.71065787549244    5.90066900992160    9.06911170363029
C         -16.04425393229855    5.12574024167783   10.12644843542227
C         -17.10031195752308    5.39787255009391   11.03546098594673
C         -17.43904020937649    4.49881773690445   12.15426264146757
N         -18.39893847611948    4.91826502607997   12.91650656068999
C         -18.77855686572890    6.12176584622961   12.39494745332644
C         -17.99134503214423    6.43987702895651   11.18101466399637
C         -18.41395452068005    7.71616614632993   10.66291905359808
S         -18.01879519873215    8.43552712647022    9.23339568727505
C         -19.35518544346861    8.20995526271634   11.63500459813134
C         -19.61299902636368    7.16933390179300   12.65524427238515
N         -20.54837718440015    7.59711825061765   13.54873571102327
C         -20.86316384996681    8.79964837787154   13.18064123149216
C         -20.12901261158997    9.28652472643014   11.99956870914275
C         -20.30037302375741   10.57968645800432   11.43589896768535
C         -19.42292746438768   11.31729633199062   10.71369804123920
C         -18.00862267239452   11.16962197356275   10.43208489980057
C         -17.06126192853080   10.62927334168520   11.26202980905996
C         -15.68490513177457   10.58105280852986   10.95782038803482
N         -14.55951602005431   10.49345452003122   10.75134842841139
C         -17.34412453330142   10.08092306403195   12.52739173063594
N         -17.51776714233417    9.63862841826599   13.57273715332706
C         -17.73863227405586   11.91675919361159    9.21115433406415
C         -18.87382824117616   12.70983046682906    8.89636609035195
C         -19.93631953903133   12.45199498179285    9.88037187599088
O         -21.01594537565399   12.98288736242543    9.98453381249704
C         -18.90473165554884   13.54689104589743    7.80589099827932
C         -17.77433623143669   13.59133056916698    6.98484662783442
C         -16.65634285762436   12.77855895492555    7.29728784526149
C         -16.61811906137699   11.94032516189763    8.40493622146396
S         -15.38674002027335   12.98193517550770    6.13409586803856
C         -16.33670762786144   14.13451211335547    5.26161776069518
C         -17.55175164870585   14.35966097040950    5.80736195439389
H         -12.80741081464420    5.99329244926454   -2.02348638766966
H         -11.87369024358122   10.54409250141033   -3.90181980513325
H         -16.71707957208121    8.35427655558650   -4.16195129439867
H         -15.42674548587880    6.45076420653715   -2.92483782289673
H          -7.01726313481850    8.43496977104582   -2.08844367022465
H          -5.33921374659097    6.19536143267485   -2.03002208587154
H          -7.66823561867385    2.63862285466545    4.25770942310325
H         -11.52574806674559    3.04268706142198    7.54841130961391
H         -12.89959665670065    7.13205981955724    4.84447226780101
H         -16.25752695770803    6.79894759910227    8.82164575896299
H         -15.46251692776566    4.23207130036367   10.30928214487225
H         -16.95203630690112    3.55817233614095   12.34651291906606
H         -21.59111796184613    9.37431383714125   13.72632214243477
H         -21.28648981510978   11.02026586907888   11.55716149329949
H         -19.77614552492431   14.14591482172501    7.59159932084149
H         -15.75256057357052   11.32924674289684    8.60038446045088
H         -15.91958784522824   14.57850781061367    4.37866490642361
H         -18.27668055229761   15.04219865828809    5.40239235484163
