95
 SCF done       -184.757379042752          0.000493166796
C          -9.87431188314168    8.08970757130930   -2.93257809834818
C          -9.26463823377232    8.76903634450240   -3.95175318694764
C          -9.59083288283983   10.09048481162506   -4.32630150005148
N          -9.81582083355466   11.15818103525106   -4.68124591893712
C          -8.26594444838688    8.23181718480763   -4.79157838405869
N          -7.45638633229624    7.84800277508685   -5.50913129038463
C         -10.93342200334010    8.60047192967923   -2.07370172890746
C         -11.42586623486114    7.54284235236716   -1.26655461645001
C         -12.43477850806604    7.71959899128968   -0.35053705005582
C         -12.96954526176359    9.00156734033368   -0.20516754998502
C         -12.46787567225489   10.05386624827198   -1.01136985474200
C         -11.45918369520028    9.87361774485575   -1.94920180975791
S         -13.27567443526989   11.54974783831072   -0.66498962641794
C         -14.25379557482800   10.77385657788871    0.53037029451114
C         -13.99531857010391    9.45500122547138    0.67052605902998
C         -10.70075846361681    6.30454273398906   -1.58834280974393
O         -11.01435305731034    5.17266463017691   -1.29179659293507
C          -9.59021807713625    6.72799655311719   -2.50037066131801
C          -8.51431172021672    5.96573830838477   -2.81158185947532
C          -8.16472137656265    4.77405788571881   -2.10973951420183
C          -7.45076522255710    3.60811753643305   -2.65472134985103
N          -7.21920999974918    2.67117297436493   -1.78649172251140
C          -7.72758588098943    3.12712135706403   -0.60325790703010
C          -8.32482088079260    4.46334554571992   -0.78391642552808
C          -8.74884355298996    4.98892684305659    0.48961859447554
S          -9.09533328969076    6.56703559117936    0.81730631254564
C          -8.57334958485192    3.89672254165593    1.40276469000859
C          -7.87379047229636    2.78539419981250    0.71198517978574
N          -7.58827914995552    1.78132586669993    1.58893271127569
C          -8.04184212714668    2.17831383830462    2.73791424581812
C          -8.71158321335633    3.48725890667162    2.71018823833202
C          -9.38016790427332    4.06467682494949    3.81933648198234
S          -8.79079409052029    3.76603446094162    5.42865260525304
C         -10.02171804635250    4.79835875330218    6.10885033292643
C         -10.88905129098254    5.26441346787557    5.13071233675610
C         -10.52815233117731    4.84488857548279    3.83739614444847
C         -11.37712855675525    5.13529010364071    2.65042722233187
C         -12.82036030358683    5.37053808473874    3.08207085849603
C         -12.85215555886076    6.47542535870498    4.14431844999972
C         -14.27998030026449    6.85953177139281    4.43244904863957
O         -14.83501882065056    6.75710561102363    5.48688924554178
C         -12.13745575322408    6.02308221157887    5.41679656811227
C         -10.00558461036649    5.00927487104666    7.51423606632220
C          -9.61973426054277    3.95178437256247    8.46471901009343
N          -9.66049008460481    4.30521021936933    9.71059614712291
C         -10.02772614166834    5.61775889061417    9.70696138649242
C         -10.26869274264012    6.09297350943560    8.32272672655437
C         -10.52168018974605    7.50957211202789    8.34410549802552
S         -10.69021589482492    8.56617810216216    7.09353159749748
C         -10.47220959988361    7.86324168499288    9.74125273118617
C         -10.16809133118353    6.67819136414161   10.55685436964569
N         -10.05711061529804    7.02218211956455   11.87460255541354
C         -10.30020061018517    8.29393475713836   11.92750986400933
C         -10.56511715498680    8.91674476440001   10.61527207894240
C         -10.76135330520135   10.29902072860546   10.34735236479641
C         -11.28697288287499   11.23385987764473   11.17473269032160
C         -12.00236355169151   11.11222830929819   12.43142820128658
C         -12.80137213140607   10.06194223973441   12.79747066715629
C         -13.53811432207728   10.02174270502597   13.99968778286093
N         -14.13993344678248    9.94690746307096   14.97360277994660
C         -13.05601496023932    8.95193667140136   11.96309088891856
N         -13.34269074656183    8.06604055829696   11.29241825060343
C         -11.90685364673935   12.39938417923753   13.10547324557970
C         -11.36581104026938   13.35061588412531   12.19906119836926
C         -11.04409974513204   12.68798751102923   10.92369211247343
O         -10.62169675850294   13.18108534933194    9.90584241945608
C         -11.18994695748876   14.67098890399084   12.53887979995064
C         -11.55331942638965   15.06807077005627   13.82897425439054
C         -12.07932165356174   14.10790523824945   14.72918883532408
C         -12.26546592555936   12.77411653139755   14.38590256229114
S         -12.44655298993424   14.82211047025741   16.26591795581896
C         -11.91102212176473   16.36703044022681   15.70352645281030
C         -11.47315621226161   16.35760244504117   14.42535174319611
H         -12.79248147238424    6.89008049698912    0.23898840938603
H         -11.11149746860374   10.70573632059557   -2.53857922797972
H         -14.97475540973825   11.36170282254033    1.06465232106268
H         -14.50845345464139    8.81385654013052    1.36435212350658
H          -7.82883958275921    6.27483236814750   -3.59045961240913
H          -7.14801803317075    3.49911896918322   -3.68164088068103
H          -7.94368885894396    1.56460224402470    3.61705758274291
H         -11.31240257222124    4.32075432723117    1.92498638215196
H         -10.99693598387640    6.03424177373104    2.14834286283640
H         -13.23907570574825    4.45306200519643    3.50152700451724
H         -13.42485631428828    5.65182175930366    2.21842041826490
H         -12.35392797681932    7.36046254752681    3.72999692963895
H         -14.81283809063171    7.24722929973529    3.53951781175720
H         -12.81546495789746    5.39929563000870    6.00892660432660
H         -11.91226519316929    6.90103840150395    6.02850998768830
H          -9.34485829158787    2.95085177340996    8.17860836912100
H         -10.24379979859832    8.82245219462676   12.86348589397465
H         -10.39161573063723   10.66002646449457    9.39175750974143
H         -10.78463911380801   15.37555605146715   11.82940844750873
H         -12.66309358012489   12.07538010922468   15.10362999673417
H         -11.95703695032570   17.20123590180501   16.37629639239731
H         -11.10306680398939   17.22459844832225   13.90897627492029
