114
 SCF done       -207.598914156565          0.000508243002
C          -5.12316567918647   10.72837986123364    6.45311942930912
C          -4.65357529842888   11.66292279342524    7.33570587145619
C          -4.92581587258851   13.04403923138339    7.23905925074244
N          -5.11386511881641   14.17564140156589    7.20595490680289
C          -3.80308490985437   11.37689078996965    8.42450690882888
N          -3.10928180958058   11.20617115574885    9.32282987354033
C          -5.96476512479295   10.98840228777573    5.29254059742778
C          -6.05595109944226    9.80741271687013    4.51142947385675
C          -6.79669723791921    9.74172268349153    3.35553124525320
C          -7.51655283763344   10.87786053737440    2.97670142160430
C          -7.43411175874545   12.04691084299375    3.77172981305891
C          -6.65618409876671   12.12695444420926    4.91948446667410
S          -8.44871281825154   13.30729372041159    3.14154094147771
C          -8.96778296970086   12.27832877498670    1.85191820052824
C          -8.40568269586079   11.05080212119478    1.87812791598524
C          -5.28112943300237    8.73481942805915    5.16179654355059
O          -4.91775653536417    7.68721228157574    4.67669905960059
C          -4.89046025282610    9.29261468374598    6.49610387455119
C          -4.46211104008699    8.55074621054370    7.54679786219067
C          -4.60833537640567    7.13381770417690    7.62052140722969
C          -3.76621527170708    6.19211765879990    8.36216515179193
N          -4.17636918128203    4.95604380514597    8.31381293632978
C          -5.31761864778284    4.97217967948971    7.57113940283909
C          -5.61361370412490    6.34004736403693    7.11888916358039
C          -6.87714179148177    6.36752714206913    6.43169930022290
S          -7.75388147294640    7.71541378539807    6.07329626978529
C          -7.26353485949553    4.98927536533436    6.32617518790962
C          -6.31524799465460    4.15653129544579    7.09464800850176
N          -6.70251600353081    2.85250176624241    7.07415013391338
C          -7.79496625863971    2.82232290118897    6.36282152023427
C          -8.21462772033159    4.12134108088399    5.83551901689441
C          -9.28990894193926    4.33334338512890    4.90565471200782
C         -10.37372271441239    3.47567085948022    4.86451620565311
C         -11.37197580656825    3.66573249325123    3.89691906597161
C         -12.53331974580117    2.93447202673376    3.62619048679519
C         -13.02887037727496    1.76950786053389    4.40157761792058
C         -14.45277103913025    2.00823991959563    4.97753675829053
N         -14.55214578788624    3.10384489065700    5.90629316952926
C         -12.97959450063519    0.47964792555273    3.55875690639485
N         -11.59156020238002    0.14809971939681    3.30509799916086
C         -13.12605940696221    3.51607160649966    2.44505824959123
C         -14.21951054212840    3.18930117030113    1.72440363668885
C         -14.60130178453437    3.95062693166367    0.50834455171528
C         -13.60729333460959    4.97187444146018    0.06132762357947
C         -12.54602136903827    5.32506767400936    0.81785610799572
C         -12.27128342916305    4.63558161246214    2.01595848918791
C         -11.22646073041007    4.73134475991900    2.92287200907684
C         -10.12954130917015    5.61282455837759    3.01011946271299
C          -9.19899127119463    5.42115753194444    3.98231176620889
C         -15.81295582030135    4.80809269259112    0.79152970779437
C         -16.92390287547300    4.79350774939562    0.04408948344264
C         -17.98394840477397    5.74535750901010    0.15515437785488
C         -19.27860206123521    5.59938477424293   -0.51732500029073
N         -20.05550318537940    6.63777043587944   -0.42632056739758
C         -19.34454300130237    7.55877838877372    0.28215582868154
C         -18.05429510111901    6.99639567884910    0.72816784601916
C         -17.30295882438645    8.00938624375243    1.42379684412640
S         -15.93875211983270    7.82855035740954    2.33270815365080
C         -18.06008199424203    9.21818696530658    1.22011952237287
C         -19.35669056860963    8.89233368178417    0.59210711858629
N         -20.10278276563290   10.01403184259298    0.41447715011156
C         -19.36689829486060   10.99632078313869    0.84024692818369
C         -18.03687402906802   10.59569250131380    1.31744947767363
C         -17.07386201380993   11.53719704837538    1.76161304166444
C         -15.72389560634492   11.43767679482168    1.85735891764884
C         -14.76371527113544   10.45613909501889    1.40719212005967
C         -14.82126370315450    9.70993734720504    0.25827719808255
C         -13.78633671425259    8.85555826923611   -0.16815737621327
N         -12.97903546018805    8.13899561879880   -0.55964435055473
C         -15.89717867309393    9.74341776834273   -0.64833149722707
N         -16.74680711355357    9.73301096660144   -1.42036384856551
C         -13.60894666527044   10.55786407496238    2.28882829846972
C         -13.71306778106005   11.75652734112351    3.04170279880478
C         -14.98855077437323   12.41827412245110    2.72082860214455
O         -15.40345127004152   13.48605065367737    3.10183203616842
C         -12.76259410646878   12.12631827496276    3.96327398225752
C         -11.69281965317755   11.25311151948085    4.18071136235777
C         -11.62255960976877   10.03883138455899    3.45399227555911
C         -12.56066794686194    9.68373389748869    2.49202898781107
S         -10.26452883246458    9.08339957512525    3.95767054766398
C          -9.80535771724754   10.29386747956261    5.10043213743546
C         -10.62250551693564   11.36834935688306    5.11152778943596
H          -6.84446279679014    8.83095424812383    2.77942315697320
H          -6.62293208924006   13.03918601145502    5.49171269113547
H          -9.67247742623656   12.66420943756596    1.14107435433036
H          -8.61009681640181   10.27999868740213    1.15727521868656
H          -4.05128790088574    9.03176883930790    8.42578930357342
H          -2.86924552040986    6.45534497545509    8.89498388837814
H          -8.28834927237556    1.88504136292394    6.17157682160728
H         -10.45469526577112    2.66749760457724    5.57564768580646
H         -12.35441175588388    1.60744533367451    5.24899998581601
H         -14.76647052503233    1.10005521049857    5.49920521822108
H         -15.15852202056448    2.19735800605492    4.16691986803598
H         -13.94528302729493    2.96720651828151    6.70622165158579
H         -14.31069553452000    3.98499984708140    5.46710016110620
H         -13.57742963121135    0.61365653259198    2.64322395809253
H         -13.41751464587899   -0.33951147506200    4.13528146821621
H         -11.16021060518409    0.84539251715283    2.70740776693489
H         -11.50657561606825   -0.75586505795347    2.85634933210236
H         -14.88373306031475    2.38451595053374    2.00525252766169
H         -14.84720767709489    3.25431600375585   -0.30219855173452
H         -13.82103150864518    5.48034409721163   -0.86515383676034
H         -11.87973274761126    6.10660264495993    0.48669742791603
H         -10.03439843335964    6.42309731852830    2.30372968437858
H          -8.34659700392871    6.07678892366465    4.05309324463767
H         -15.69312670467094    5.51987561407443    1.59461091509174
H         -17.05048546796009    4.04726828215685   -0.73153365867931
H         -19.60058988495371    4.71671995328643   -1.04310855280531
H         -19.72724065900500   12.00987918530397    0.81559039710104
H         -17.48419996087236   12.47640619321703    2.12478714705456
H         -12.85446384957476   13.04677884362894    4.51844788031297
H         -12.48638816078054    8.74411832656781    1.96988118493401
H          -8.94156220928479   10.11495097144826    5.70910216492334
H         -10.49063158076420   12.21717401782181    5.75772962640234
