102
 SCF done       -193.465647325373          0.000666270582
C          -2.03017993506765    3.27167603283464    6.84502588573422
C          -0.84526865781179    3.74048227991090    7.34265519188448
C           0.20426423176408    2.91508939632772    7.80293011357430
N           1.12321062851335    2.30394505176039    8.12018795797684
C          -0.46371401467020    5.09687097045102    7.42847877453571
N          -0.07760946785328    6.17297276147277    7.53301885665257
C          -2.44332265957193    1.87605477282566    6.83381677608053
C          -3.71209028556980    1.77336988539712    6.21350929480340
C          -4.36179412884881    0.57209600308825    6.05042970492975
C          -3.73380200171015   -0.58178481198631    6.52662422786010
C          -2.46657418617861   -0.46815965639279    7.14826367424492
C          -1.81010087799101    0.74344613826356    7.31350567868726
S          -1.87725185486296   -2.02076125744954    7.65675747278558
C          -3.30007097225130   -2.79111185123724    7.04684885621225
C          -4.18121582595363   -1.93364064336062    6.48961673075217
C          -4.16520774129321    3.11057285711773    5.79200443390262
O          -5.18564075555650    3.36302960178929    5.18664617386094
C          -3.08230671681525    4.04864001734603    6.19453556810134
C          -2.97862924462222    5.35148106316554    5.82185088292467
C          -3.90635487565283    6.11895206637728    5.06186796758477
C          -3.44589486029639    7.07930757590463    4.04415475239204
N          -4.39322492984055    7.58961403596395    3.31827474966627
C          -5.55134156500551    7.06086566683568    3.80217279369855
C          -5.27509295056364    6.16518241599399    4.95023856544522
C          -6.51877226503605    5.69674247598851    5.50467128015420
S          -6.76722519696265    5.01455695889625    6.97775687750412
C          -7.51311390832956    6.11594910467968    4.54680434486468
C          -6.89143002927474    7.00377208240490    3.54207662990560
N          -7.81822536097934    7.40545491709709    2.62381847505493
C          -8.93039071288082    6.82988074719289    2.97739269469824
C          -8.82931381646295    5.99801644128258    4.18447323219589
C          -9.83869688674239    5.12526211811230    4.74282034106545
C          -9.41080449606169    3.90465035343759    5.22590629566668
C         -10.31786777039822    2.96297575601422    5.72846415428672
C         -11.67706686800727    3.24290140370619    5.65649946372068
C         -12.15544219119724    4.47468825038537    5.19792283759895
C         -11.21938839323265    5.45884229387305    4.78446527398402
C         -11.67056837039727    6.76948274401158    4.48225150589189
C         -12.99081128318270    7.07691837033320    4.49937065589156
C         -13.97182606625482    6.09771291414348    4.81172137243405
C         -13.56599428803674    4.78906982613100    5.16728058952851
C         -14.56711684984416    3.85363724086778    5.47170177656428
C         -15.89777186356844    4.19283338405413    5.43234432244437
C         -16.29066039032969    5.48722753807569    5.08955055030930
C         -15.33803668694041    6.42390526948062    4.78384403981341
C          -9.84181156333298    1.73003433262925    6.31306207604114
C          -8.63308745160467    1.63312011444713    6.90674255501572
C          -8.07947463824013    0.46494332054339    7.49317205436074
C          -8.51562100144969   -0.92895977954256    7.36583346786471
N          -7.73900222618473   -1.79384412731083    7.95714855640574
C          -6.74622290906982   -1.06164459069983    8.53999388313447
C          -6.94689303798924    0.37303484375213    8.27516869943636
C          -5.88432188116450    1.13795791277610    8.85936906083877
S          -5.61391995150887    2.76319450792934    8.82418322219867
C          -5.02796943571288    0.14319981793916    9.45122905405741
C          -5.57332464081422   -1.20062086383639    9.24371876027784
N          -4.70844018964686   -2.13884684315711    9.72839070051743
C          -3.69486259437727   -1.47710179528120   10.21010395109384
C          -3.80992132479959   -0.01876961660884   10.07422809332601
C          -2.88841919462493    1.02339083158537   10.33866031378885
C          -1.73059021554998    1.03624035854798   11.04245326184800
C          -1.11449667627185    0.10294218473063   11.96162490055319
C          -1.78624778647282   -0.72588155415526   12.82035738712207
C          -1.15102765094702   -1.56080618993476   13.76174803130075
N          -0.67041034676679   -2.26659267087944   14.52827545749472
C          -3.19464005499232   -0.74214706710902   12.91252429359067
N          -4.33498764105384   -0.73619288910125   13.03950958859861
C           0.31124624636371    0.39872279954013   11.97523841663095
C           0.52985023620358    1.62869897369038   11.29534860929906
C          -0.74817150923677    2.12877540056883   10.77543926358715
O          -0.97869637495426    3.16273856058419   10.18847345204061
C           1.78115821245443    2.18304065773954   11.16293436981537
C           2.86148319805046    1.48941955530305   11.71512768483807
C           2.63273125714350    0.26238543364560   12.38637303011170
C           1.36769118629839   -0.29603859432030   12.52944633270843
S           4.11422887210005   -0.41489173330854   12.97955944535680
C           5.01004793158007    0.92009227314776   12.34012684935324
C           4.24203871543593    1.83536586224254   11.71023720596795
H          -5.32720889591173    0.52647926553232    5.56973329906224
H          -0.84561466578301    0.77704616981252    7.79212661058617
H          -3.39524977225090   -3.85293004787018    7.15783544059700
H          -5.12363546825168   -2.23410453662714    6.06893925573363
H          -2.04411126806257    5.86495248187724    6.01778794815910
H          -2.41513482653494    7.33564129110729    3.86958103326370
H          -9.81394029187122    6.94346037761505    2.37322447738826
H          -8.36416741027393    3.65411893727754    5.16533843782384
H         -12.36690283324488    2.49674613666359    6.01818467912744
H         -10.93910941818962    7.53498965035829    4.27102975167009
H         -13.32311032626244    8.08036752017709    4.27582769501486
H         -14.30361446357310    2.84095404932781    5.73207255019910
H         -16.64747201313446    3.45187195711309    5.66721382612914
H         -17.33918503581120    5.74296886852822    5.06491279254336
H         -15.62429682073533    7.42987937897781    4.51278324963561
H         -10.52338997311163    0.88946484623248    6.31632277853319
H          -8.01049214756676    2.51524030377677    6.98995471386845
H          -9.38622478033521   -1.26487307415884    6.82999109918176
H          -2.85277041797224   -2.00868323700324   10.61639873625051
H          -3.11220781584465    1.95373210825810    9.82058039717526
H           1.92140372228881    3.11663676627317   10.64206179092086
H           1.23765848743096   -1.23630672391050   13.04035932972364
H           6.07373168177100    0.93503233638052   12.47798719904537
H           4.62303653656729    2.72821518562023   11.24903908222912
