87
 SCF done       -181.281165966869          0.000553439190
C         -12.36736160039400    5.89606221100404   -3.06507796282505
C         -12.64441774695501    5.72563270126901   -4.39358802358386
C         -13.94437123998529    5.78405827102866   -4.94002056599166
N         -14.97617246408731    5.82756010443130   -5.43994888243815
C         -11.66484098278583    5.52875123577982   -5.38967115453009
N         -10.90815085175517    5.37239861247765   -6.23848608884286
C         -13.32826265120787    6.15451074185305   -2.00553257403842
C         -12.63101699678832    6.53027105556744   -0.82506557710392
C         -13.28006738733264    6.81743459513505    0.35382349310591
C         -14.67206474216657    6.70386824973167    0.37743146409578
C         -15.35738094462729    6.32108055992674   -0.80417317306671
C         -14.70702544872895    6.05193690324587   -2.00117330770260
S         -17.06741833671584    6.23164582035816   -0.53434585830060
C         -16.86090835155008    6.69480389792500    1.11830967589134
C         -15.57131987324960    6.91163888718774    1.46042405396486
C         -11.18663090494907    6.52264741666082   -1.09748267864765
O         -10.30062835144064    7.02978064976383   -0.44624914228520
C         -11.05054236117572    5.86710986254385   -2.44010225954809
C          -9.92730712550113    5.28413576110188   -2.91918788476560
C          -8.77167137816997    5.00702862011663   -2.12711397601651
C          -7.38099094139788    4.93618644496361   -2.59623904610532
N          -6.51687066579173    4.64253993873802   -1.66972282940823
C          -7.24001485621608    4.47049491694802   -0.52669649666521
C          -8.68003665806147    4.67660491681770   -0.79951960571172
C          -9.44522914287015    4.42318251285000    0.39036199677978
S         -11.06053023558044    4.12276920462595    0.49669913364677
C          -8.45060314684648    4.27195515186311    1.41880661549815
C          -7.10285382041126    4.20982685915217    0.81026164508766
N          -6.16469751916983    3.97255992447326    1.77148653931178
C          -6.81487484262002    3.90444917941195    2.89656303187649
C          -8.25921091654400    4.12150590690376    2.76819875329826
C          -9.22949506087781    4.26498127597667    3.81497630624920
C         -10.33335952785035    5.08101406617453    3.62642272715356
C         -11.31774932562989    5.21887840084673    4.59907896126005
F         -12.28834621069900    6.11202188183470    4.35505224071662
C         -11.31648370441813    4.53967942037231    5.81298269721454
C         -10.16073450907058    3.75422205393328    6.05905897102857
C          -9.11823129347315    3.62300957185081    5.07359518769378
N          -8.13279535371611    2.83416215283246    5.49729904337378
S          -8.47766478523184    2.31320614290713    6.97586317469556
N          -9.89191639382781    3.05193815968016    7.15836319283627
C         -12.39397867531658    4.63666524496416    6.75478218333579
C         -12.25241993582905    4.59163571207666    8.21700096351895
N         -13.36209729387480    4.77805704286752    8.86617198045847
C         -14.32636427792050    4.93038221545694    7.91559902307329
C         -13.73843007350585    4.82978375638053    6.55738651792125
C         -14.78687394728152    4.89691429445995    5.56839433284763
S         -14.73177703621339    4.61808239251787    3.95023598770812
C         -15.97441716446217    5.16103578322320    6.34036660359943
C         -15.66993281638402    5.14831235690655    7.78015363748260
N         -16.80603316849599    5.36551832824013    8.50531889245604
C         -17.76543057428773    5.46950822095740    7.63784147265001
C         -17.32963345847671    5.34916744267792    6.23571069455557
C         -18.11438483647957    5.49933387467872    5.06041207441899
C         -19.42888142059621    5.21982796372775    4.89114945429977
C         -20.37356818382927    4.49665792144840    5.72217927391205
C         -20.06283101428003    3.47921653251736    6.58443151170793
C         -21.02354596703811    2.76250496325691    7.32834334853033
N         -21.77263396533250    2.16846830056496    7.96255460921180
C         -18.75842921107781    2.96198117402269    6.73826845366627
N         -17.72981820995308    2.46319789392029    6.84034916100750
C         -21.70875910285106    4.88361623992582    5.28910384876329
C         -21.59987334470242    5.63455892431795    4.08691169755732
C         -20.18098756267945    5.80750924473809    3.74469509800041
O         -19.70053142585448    6.35888220659890    2.78023636629527
C         -22.70206967479325    6.10296390640547    3.41109713671133
C         -23.96306539067820    5.82969710578234    3.94830696189428
C         -24.05924156181684    5.09230056060631    5.15517504551468
C         -22.94740799213264    4.60977805855275    5.83557882263157
S         -25.71198525875307    4.88553990821930    5.63545172786477
C         -26.25116171785302    5.76335153368206    4.24662002572404
C         -25.24613471367248    6.19692857723320    3.45451211797604
H         -12.73195505265130    7.10069532034600    1.23879232035629
H         -15.26873031993370    5.76004124571266   -2.87327571610486
H         -17.74118400894834    6.77178558217860    1.72822715121901
H         -15.24395867495407    7.20207298199293    2.44248192144170
H          -9.88902904023058    4.93854844907845   -3.94498066166137
H          -7.06340301533364    5.12554416707907   -3.60704811227330
H          -6.30677042346289    3.71886739419280    3.82594608553546
H         -10.43914630798808    5.64753755935721    2.71482910989155
H         -11.32194495822231    4.43275945579457    8.73157774127201
H         -18.77168223014037    5.67832841240504    7.95836626103834
H         -17.60649179146915    5.94176119025969    4.20817634094083
H         -22.59303643530514    6.66208393600732    2.49481978206352
H         -23.06595004048130    4.05669983337863    6.75288290057144
H         -27.30540554988875    5.90358482595721    4.10684773553587
H         -25.39171452642309    6.75832772044061    2.54958629614516
