85
 SCF done       -177.367381840058          0.000945768279
C         -13.00001616115416    2.72520354838937   -2.82949140687609
C         -13.60579028519033    2.87132999809363   -4.04616414681213
C         -14.91888659873324    2.43783981710379   -4.32896693459883
N         -15.97783882354882    2.09965023053760   -4.61238692631060
C         -12.97114190765328    3.42775518734770   -5.17711477754895
N         -12.49277472368516    3.87053737132877   -6.12169410045288
C         -13.57630550497840    2.13248238879522   -1.63264125813000
C         -12.55325849439201    1.95704019887253   -0.66057010156151
C         -12.80616275332792    1.46694026421065    0.60015121446843
C         -14.12843843793431    1.15921145900268    0.92349383200469
C         -15.14042000029617    1.31788952360246   -0.05786302830492
C         -14.88467167155174    1.79578743803469   -1.33723156369140
S         -16.69234345113635    0.86945766417519    0.57096493863837
C         -15.99132624645988    0.50398474094092    2.11234291304217
C         -14.65548428699106    0.69534110184575    2.16068717219406
C         -11.27525632223261    2.41266862607307   -1.21999002824389
O         -10.15713943527324    2.18426703590045   -0.81873023962365
C         -11.64669457262538    3.14062830511359   -2.47898895159970
C         -10.88231953029109    4.08711419786805   -3.06774753176068
C          -9.72268070478161    4.64525584719252   -2.44060876962113
C          -8.48377602537097    5.09876194037609   -3.09171425257798
N          -7.58065055184925    5.54244220668709   -2.26980343597537
C          -8.13029110344814    5.44895023137633   -1.02453555531177
C          -9.51010489488758    4.92212334802890   -1.11646503024631
C         -10.10533043538940    4.86412922805538    0.19169710185639
S         -11.70316486411835    4.69234764907327    0.54728597085839
C          -9.01722324292659    5.16402837070518    1.08295251403196
C          -7.83354364527655    5.59279307493040    0.30189169545932
N          -6.80441474513231    5.91455166287280    1.13863505313787
C          -7.24160789417437    5.69168647585117    2.33958473593740
C          -8.62005464350723    5.18429479915001    2.39742301876032
C          -9.29852137782442    4.72557634024906    3.55881895824022
S          -8.72422960570474    5.08044537736229    5.16705604404821
C          -9.99148596844144    4.15134386112817    5.89084382710543
C         -10.80813260828337    3.60104020121692    4.90730522531862
C         -10.41861401058050    3.92953298773893    3.60168009219190
N         -12.00791006326321    2.86703103999057    5.15253451705160
O         -12.55057816629071    3.00047562088861    6.22948314001015
O         -12.42861554953157    2.18394306384959    4.24341314498634
C         -10.05387086309389    4.01324297568185    7.30725900866366
C          -9.78090511400330    5.09429436153779    8.26997395720642
N          -9.92331615533099    4.74568677265821    9.50908339107977
C         -10.25489805026471    3.42175268097082    9.48645517215072
C         -10.36362411795824    2.93963193874240    8.10032419474684
C         -10.61708587757330    1.51711425972064    8.08863901824350
S         -10.70534820546250    0.55760445919281    6.75001214172491
C         -10.65468599905143    1.14530127235858    9.47058983870189
C         -10.47410108993927    2.35667669547771   10.31330252258356
N         -10.53851648841744    2.04204953916915   11.63305993563577
C         -10.72027971602829    0.75884106979265   11.67836206802985
C         -10.75016108033579    0.09100667444878   10.36504353151085
C         -10.89191694640892   -1.31031893351266   10.28224673462995
C         -10.59225124804058   -2.23326811299615    9.32267780964567
C          -9.85685194892579   -2.21940354293802    8.09135334645744
C          -8.90653186805085   -1.29395527278194    7.71197271751113
C          -8.18235406131903   -1.34427121769144    6.49892700726467
N          -7.56423356161959   -1.31871694716949    5.53342689143217
C          -8.37728699619994   -0.33006605798331    8.59037663074504
N          -7.91714718918056    0.46378279503897    9.28003632146622
C         -10.19115494389931   -3.43379584119635    7.35750812962019
C         -10.95950940171913   -4.28151318036807    8.19831854997308
C         -11.18623556870555   -3.60589629788925    9.48202395560933
O         -11.74711879711731   -4.02217023122115   10.46756104298563
C         -11.38788357938545   -5.52494018737218    7.79884191071739
C         -11.05487853068263   -5.94618147822822    6.50768054959445
C         -10.30704188414625   -5.08358056705042    5.66915160308944
C          -9.86500175993915   -3.82889068975367    6.07550824597973
S         -10.02244819321606   -5.80579004873354    4.11914579684965
C         -10.88108275249870   -7.22898213150369    4.59629369069170
C         -11.36579041526798   -7.17262248401215    5.85629368979766
H         -12.01849293558372    1.34683278390261    1.32713822826143
H         -15.68715236850382    1.91338597071915   -2.04692219394328
H         -16.63814248997693    0.16575003465795    2.89843441912801
H         -14.04627872352430    0.54872353810715    3.03366030660487
H         -11.15895272040040    4.50523929579869   -4.02757875269727
H          -8.29621609703222    5.05917282086576   -4.15074961107683
H          -6.61508722939841    5.86153592705497    3.19845780970525
H         -10.95389695370302    3.59734758757608    2.73029492937771
H          -9.52378473393315    6.10297735998256    7.99726678068667
H         -10.81710452363841    0.24715238353936   12.62063859550229
H         -11.35758727090171   -1.75490846562374   11.16118023166115
H         -11.96192919578238   -6.15280941895977    8.46238417981030
H          -9.30335505637329   -3.20492561276107    5.40039384342538
H         -10.97155710462262   -8.03335285627446    3.89242422211111
H         -11.92442088469252   -7.96365604500923    6.32266053676126
