102
 SCF done       -181.106690266330          0.000503097601
C          -4.38449220860199   -3.16881556028844   -2.41426965813529
C          -3.30909980317065   -4.02221393015259   -2.34904410476061
C          -1.97925867666796   -3.58247279270778   -2.45592611959816
N          -0.87741833393551   -3.26872690092356   -2.54873986423281
C          -3.36010717787292   -5.42206123806419   -2.20070009129907
N          -3.31397632661460   -6.56538519559441   -2.09072070399856
C          -4.30269771830979   -1.72582277771496   -2.59255250202233
C          -5.61469707398538   -1.20083316284644   -2.69884808756922
C          -5.86173549528506    0.13890911992667   -2.86941738413115
C          -4.76620171740652    1.00778223019821   -2.90595591272510
C          -3.46162022689632    0.47547530624047   -2.79177713832612
C          -3.21071649293802   -0.88054255023621   -2.64427939597622
S          -2.25864466042631    1.72542195371519   -2.85366994305610
C          -3.48960304203329    2.92923279383219   -3.01730553374638
C          -4.74326526587245    2.42500730360343   -3.03220739507245
C          -6.58560001929996   -2.30075414161641   -2.55925162026030
O          -7.79152486255914   -2.25019737956099   -2.73158547623847
C          -5.78658902010874   -3.50665527795462   -2.28273101357872
C          -6.30036440748029   -4.74810072380915   -2.00885168750070
C          -7.59775096247411   -5.08057576556067   -1.57818471209584
S          -8.02516620125670   -6.77829264634820   -1.80288140994662
C          -9.60150156645321   -6.52223017021998   -1.18631653412988
C          -9.79150691065917   -5.24436891672339   -0.78209790610207
C          -8.65956250123600   -4.40625972296252   -0.97088228632315
S          -8.89207427752949   -2.77989477480812   -0.39157101514988
C          -7.36151084806565   -2.00892529956106    0.02585803107691
C          -6.22618015422070   -2.70328350551880    0.32761759677678
C          -5.00692189120723   -2.00108886218453    0.51767401853382
C          -3.69723102121324   -2.41118988931422    0.71835136263702
C          -3.11122543919605   -3.72060490784060    1.14936197521588
C          -2.53727004611335   -3.55122706176666    2.57547804598098
N          -3.49107552023273   -2.88062639238848    3.44437673916920
C          -4.09373110851685   -4.89890442681946    1.09309731048249
N          -3.41636158268333   -6.15441870614946    1.38389685655376
C          -2.87606557913159   -1.22081865705591    0.64297282641941
C          -1.53703988360809   -1.06435042444906    0.60200547235923
C          -0.92837124635048    0.29089598167929    0.64155945977907
C          -1.89519735257641    1.43034919213151    0.51407553259889
C          -3.22323503840103    1.24373587725193    0.42846074397091
C          -3.75955784467958   -0.06282129093443    0.48921632026829
C          -5.04588596553870   -0.54638951161710    0.38398355817125
C          -6.27054234430084    0.13084613957568    0.18422395598136
C          -7.40805684551190   -0.58459739939533    0.00807641626153
C           0.21477625391520    0.54266158721200   -0.29969695286862
C           0.56737355242538   -0.16913658467603   -1.36915082709714
C           1.65777414297950    0.24690792208008   -2.21742814030108
S           2.14329889335782    1.92324102451798   -2.23509689817063
C           3.36835486884856    1.61948180555539   -3.40115437399471
C           3.42064011494541    0.31430628452798   -3.75336000256574
C           2.45376326128632   -0.47253984666897   -3.07698157845333
S           2.39445886967653   -2.19936514036366   -3.44766532005437
C           1.99823794774252   -2.91628297852709   -1.94452297460415
C           1.64447732247250   -4.20799473735648   -1.73057186033027
C           1.66135896205880   -5.36145706141943   -2.60043929892934
C           2.53722449589696   -5.60013155140396   -3.62871325705108
C           2.50143196674322   -6.74439951957708   -4.45054299427604
N           2.51687192451614   -7.64415754704318   -5.16381818108230
C           3.65727729122344   -4.79520345157512   -3.90838515675996
N           4.61892854203649   -4.20524940517955   -4.12368486711697
C           0.70454040885047   -6.31810723273436   -2.06464199222198
C           0.25997738218927   -5.86177862890356   -0.79508204770810
C           0.83592160144996   -4.53457795995878   -0.52744386695414
O           0.62662269330297   -3.80650441764663    0.42330017955503
C          -0.59260190606045   -6.60142728003840   -0.01016853301490
C          -1.03002732352500   -7.83446824071237   -0.50371927762705
C          -0.62251390987483   -8.25238546647299   -1.79174178483886
C           0.24648640430535   -7.51226332639569   -2.58341336185176
S          -1.32412751926129   -9.77968874541460   -2.21169414552164
C          -2.11928031761303   -9.86318020487278   -0.67884849427577
C          -1.88064924723655   -8.79461950134500    0.11165145444330
H          -6.87167374161442    0.50819135031204   -2.95627565532624
H          -2.19743643512429   -1.23149712969596   -2.56583639650048
H          -3.19351211561674    3.95721423870166   -3.09697659015662
H          -5.63103854984231    3.02372644838961   -3.12913052244361
H          -5.64759603944526   -5.60374204605803   -2.13592904756682
H         -10.29667506474579   -7.33753012096668   -1.14960566751852
H         -10.70371979547713   -4.87659309034202   -0.34762480617083
H          -6.27323862531105   -3.77481247082538    0.40875879036503
H          -2.26272784172134   -3.97523299115903    0.50188235793579
H          -1.64686494805808   -2.92189411246153    2.52849077870745
H          -2.22271065261118   -4.54108211138085    2.94195430123726
H          -3.10313843948140   -2.77771922298715    4.37527842838977
H          -4.34688742364911   -3.41912430097603    3.52370986686135
H          -4.48888846943474   -4.96807536229310    0.07805408759214
H          -4.93363248832762   -4.70880767439587    1.77823381426391
H          -3.41638976078636   -6.34735694273405    2.37903113565071
H          -3.88048462801070   -6.92242450644974    0.91533360413553
H          -0.85529361311155   -1.90485931652869    0.59495396487150
H          -0.49610797821103    0.36198593037038    1.65825362450671
H          -1.46287579395936    2.41876023916339    0.48509166432113
H          -3.89384511092864    2.08427743518860    0.31823989479706
H          -6.28170161241036    1.21007658209078    0.15330077272199
H          -8.35851149989358   -0.10935098402571   -0.17811290376000
H           0.77029036843575    1.44568743697794   -0.07568790524565
H           0.05765633962161   -1.08473485412655   -1.63871143586681
H           3.98099850643375    2.42887417768587   -3.74363581476576
H           4.11587112927903   -0.10435605015566   -4.45755624935981
H           1.90539505687679   -2.23584985689970   -1.11013266647693
H          -0.93264522419942   -6.24250776781837    0.94794676660748
H           0.53388955926626   -7.86793479920989   -3.55909245250419
H          -2.72536139458740  -10.72173903641857   -0.46268433677808
H          -2.27809572843307   -8.67385482158380    1.10219442579824
