148
 SCF done       -251.074627728346          0.000906641767
C         -13.32097880912093    5.29496103307298  -10.99439186884661
C         -13.27199552385208    6.16375406487897  -12.05767936660267
C         -13.59721830652156    5.81259649753142  -13.38215185322319
N         -13.85564712898006    5.59055920435315  -14.47958524469136
C         -12.86637773256841    7.51162499352613  -11.98244159170428
N         -12.52573174957999    8.60801502422424  -12.02148724585951
C         -13.62702891708120    3.87085036867477  -11.07599125303960
C         -13.47556244649539    3.30268164973547   -9.78714506291238
C         -13.68184972838068    1.96771274585411   -9.53968899457013
C         -14.04338719692819    1.15050062944925  -10.61591734326804
C         -14.19370510591536    1.72750293316379  -11.89800785870707
C         -13.99342514024694    3.08038260451745  -12.14800166649650
S         -14.65090610296433    0.53428598235070  -13.07429845444561
C         -14.63335963120934   -0.70129785697759  -11.86335944198011
C         -14.30326683593016   -0.24934778363407  -10.63418831520687
C         -13.09990743276791    4.35965799952992   -8.82343069174466
O         -13.04058033875505    4.22911746320576   -7.61730703842532
C         -12.97611839047033    5.59882424493207   -9.62660632041475
C         -12.74054612309445    6.84303192872263   -9.10161435946970
C         -12.09088839196807    7.08424955655436   -7.87166047928086
C         -12.31045456725122    8.27200841009121   -7.14259486318262
N         -13.12760305543426    9.26831475660606   -7.48206836647685
S         -13.07134250068246   10.39710903137895   -6.33910569880298
N         -12.03441232147518    9.67738639366397   -5.34711704528156
C         -11.66809834538295    8.50793279555591   -5.87527741749991
C         -10.80475625745269    7.56068894779014   -5.27046585448991
C         -10.51580970932281    6.41408370695035   -6.05554675883031
C         -11.09707253654861    6.21518967312527   -7.34803201311784
N         -10.62923608776931    5.22854240836642   -8.12830126759518
C          -9.79586232118618    4.34599998098394   -7.65923649891539
C          -9.21911710663060    3.33496740792946   -8.60554036068288
C          -9.76015924651973    3.47438658083997  -10.02182673553851
C          -9.39028189775688    4.41506333678907   -6.29017582045452
C          -8.58424338477963    3.34540152950186   -5.61970474924259
C          -9.51366464770456    2.23916345918821   -5.11356600131616
N          -9.69310023687009    5.46123064547874   -5.57459933632351
C         -10.31947493031988    7.83793635016649   -3.96346086504193
C          -9.62262468360087    6.99303045405111   -3.16165858239818
C          -9.06198170277060    7.32164248893028   -1.88394285475375
C          -9.01745183879331    8.61180632523327   -1.39041697261354
C          -8.38871902200929    8.87617825524484   -0.16318294721194
C          -8.17558551405136   10.07884292896898    0.50337479412639
C          -8.62061420382452   11.42834966643258    0.05308123748940
C          -9.36760616839427   12.20213607701141    1.15570838131444
N         -10.38525814806416   13.03908035515526    0.54838209754902
C          -7.42862155345071   12.23409473426764   -0.49801958652152
N          -6.99059677210763   11.64441639218253   -1.74862739966594
C          -7.40267715372925    9.76789990094178    1.68052295456578
C          -6.84109364346635   10.55494448089067    2.61796483844083
C          -6.01164619978858    9.99379258984779    3.72347760553819
C          -5.93926651606616    8.50342709255269    3.75098716521876
C          -6.48750380358169    7.72797273454817    2.79713139248022
C          -7.19844138160837    8.30983808468405    1.71993575956683
C          -7.79366430094937    7.78225721750873    0.59305766820359
C          -7.87935563061925    6.46483792712377    0.08182602528004
C          -8.48466245759641    6.25381161938502   -1.11236484771807
C          -6.51013129954238   10.56501343871641    5.02825851786800
C          -6.07184799997146   11.73549140031635    5.50336719479707
C          -6.49463653311622   12.37357574434142    6.71848963551179
C          -7.35983778322151   11.80367395707721    7.66978567441965
N          -7.95006079281843   10.60338443576293    7.61636837495079
S          -8.85148915022788   10.40330852706646    8.92706860969750
N          -8.54839494797348   11.80448344722799    9.64182719494685
C          -7.71638606777330   12.51437474274219    8.87376359020499
C          -7.25725478880145   13.81913889282784    9.15876780922918
C          -6.39103790592409   14.38820198208294    8.19600961045900
C          -6.02482646920933   13.67570867743246    7.01051529607527
N          -5.21962687958849   14.26927691286073    6.10013251465290
C          -4.77138942427217   15.47467754999299    6.30692768774178
C          -3.91645100418693   16.09408266590212    5.24153289272909
C          -3.69905609456190   15.16662481825138    4.05362842257168
C          -5.09233590569860   16.16537704017840    7.51838522725299
C          -4.51728694641614   17.50332080320126    7.87126983269005
C          -3.20312043729192   17.32771507481300    8.63637859376698
N          -5.87552262099613   15.61800930326143    8.40550792925564
C          -7.74775727786918   14.44748612638133   10.33659857593447
C          -7.61956150043415   15.75340974026798   10.68934990034837
C          -8.18960668352729   16.32050109247393   11.85313521949937
C          -9.22687382077904   15.89080651862956   12.63120567586301
C         -10.24747713459408   14.87604870269446   12.47460437720078
C         -10.80902395486174   14.43137238911972   11.30397773137293
C         -11.84300696929872   13.47753329682788   11.23421688935439
N         -12.66633922432332   12.68682287706774   11.10763856892217
C         -10.46999301125848   14.91204739138042   10.02413189596494
N         -10.27369630353246   15.28996442968777    8.95774364308124
C         -10.76836539270049   14.57944390230387   13.80686652984972
C         -10.26999837266645   15.54622501034471   14.71708488742917
C          -9.35493299891262   16.45471519259796   14.00281149377580
O          -8.78429162479757   17.42960405462236   14.44014779112754
C         -10.61723059947825   15.55575643594634   16.04624373688470
C         -11.48489832263691   14.55834920969797   16.50184199403800
C         -11.96225886930169   13.58772007540251   15.58934587030741
C         -11.61972025800334   13.58294646601373   14.24192692259001
S         -13.00635448326018   12.44596407392533   16.37626231317178
C         -12.80362386086279   13.26432062117711   17.88704688817214
C         -11.99210036123353   14.34138630599558   17.81443706683934
H         -13.56338128106484    1.56491454969964   -8.54541825878710
H         -14.12787745802619    3.47403557498517  -13.14163109844714
H         -14.87652060256565   -1.70523444904743  -12.15273604920345
H         -14.24327854483392   -0.87226374673289   -9.75986891351941
H         -13.06415306455456    7.72515882849948   -9.63935026715330
H          -9.43271075048571    2.33246810870966   -8.22527502305157
H          -8.13087158894502    3.45556571249858   -8.61281490925396
H          -9.26351632374659    2.76942401498141  -10.68451680406672
H          -9.59730081965227    4.48311140408442  -10.39123493902191
H         -10.82807647883575    3.27558331164049  -10.03773414531343
H          -8.05668049985114    3.78977204059271   -4.77448158301538
H          -7.85163640850189    2.92695012673795   -6.31103243078287
H         -10.22201713197310    2.64600414772575   -4.39599427494543
H          -8.93655923245890    1.45457393962760   -4.62999023822673
H         -10.07722591193435    1.80161494772842   -5.93436986995350
H         -10.57451146020718    8.83053415731786   -3.61651759616695
H          -9.46372783789151    5.98320419828868   -3.51190100308346
H          -9.42971862819020    9.43154318315528   -1.95674067124563
H          -9.32652788212176   11.30099151514965   -0.77177698189731
H          -8.64825446150888   12.76974032618240    1.77030434429983
H          -9.87851721059795   11.49084111389119    1.81058523486196
H          -9.96257477987568   13.74235694059578   -0.04765630906185
H         -10.93147833206370   13.51452043703735    1.25732000679146
H          -6.63578251572622   12.27842718285368    0.26969345400484
H          -7.74863889970301   13.25765113977896   -0.71487801110010
H          -6.70042812789416   10.68332557508919   -1.60069546125612
H          -6.20670269319815   12.15668216003306   -2.13625232044128
H          -6.95318589311800   11.62920780903379    2.61528545678819
H          -4.99034167047649   10.38193308268844    3.57321058222033
H          -5.40352747285228    8.07384584707820    4.58378816211271
H          -6.39311614936989    6.65246307622539    2.83952933700670
H          -7.45069606109395    5.64688051324841    0.64252518670728
H          -8.54726865445994    5.25495782231078   -1.51979664796801
H          -7.26889269792673   10.00031449326537    5.54694627962151
H          -5.33085477581251   12.30304143522012    4.95471070516865
H          -2.95296727006838   16.37258236334550    5.67644147841642
H          -4.39929548077445   17.01661814128800    4.90520837921155
H          -3.20429218766261   14.25420371770610    4.37488733570085
H          -3.08343332362597   15.65608615449906    3.30291734881133
H          -4.65321569276821   14.89920550908219    3.60811598902171
H          -5.23024455282598   18.02492117807767    8.51066387222694
H          -4.34827041289568   18.09783733862256    6.97353021978500
H          -3.37790210247051   16.76267688648591    9.54841563406597
H          -2.79147858673542   18.29843028571022    8.90046483203592
H          -2.47036636658101   16.79287477324098    8.03604338298326
H          -8.28279196030489   13.77176213920751   10.99224083983656
H          -7.00146714870373   16.39229978607147   10.07613126881217
H          -7.70700544771750   17.21794140719918   12.23129621625855
H         -10.23038070997235   16.30972762274081   16.71410436169218
H         -12.00314490326112   12.81945610535806   13.58540671888997
H         -13.31321451369095   12.88063291744998   18.74946046287679
H         -11.75014208080718   14.97081180612823   18.65165151084322
