104
 SCF done       -187.555744457582          0.000533280761
C          -6.82714107159210    0.88625243233704    5.23883417334862
C          -7.40664296782730    0.07269273348459    4.29977046783110
C          -7.73770035969463   -1.28040505486839    4.51086583635977
N          -8.03417532641029   -2.38351140906833    4.62768588522640
C          -7.72543853264239    0.49700120220607    2.99526326222288
N          -7.99676643415952    0.79111397423256    1.91844989514683
C          -6.41800457406895    0.50770071254463    6.58818698780680
C          -5.79672567091695    1.61965006228548    7.21999489590079
C          -5.29948196932363    1.55637553428548    8.49849756855937
C          -5.42032999731513    0.34543792450000    9.18896568454289
C          -6.04368685413012   -0.75405131721373    8.55288196179724
C          -6.54621075692187   -0.69331658474128    7.25801125504953
S          -6.08496143173247   -2.14204451539043    9.59389408150127
C          -5.28279855175714   -1.25781532104597   10.84497769434996
C          -4.99462215783436    0.01815287413563   10.50703663221344
C          -5.80821620247994    2.75632479958127    6.28753205413624
O          -5.39260889157239    3.89087254760281    6.43500786814087
C          -6.46845655376728    2.27308239433533    5.06801040963789
C          -6.64991408888206    3.13000031245452    4.03035107436639
S          -6.06678279953123    4.73610594024172    4.10920204367198
C          -6.55472626408867    5.23169446186118    2.46888061761028
C          -7.35593788481742    6.30011575543703    2.22277368661178
S          -7.64626061695854    6.51665451831740    0.54595553180602
C          -6.66413930856075    5.15342069144102    0.16331696185662
C          -6.14006689547958    4.56882494390378    1.27330249209571
S          -5.05152955230045    3.18560777074617    1.31908536188308
C          -5.11721491153596    2.66668548885962   -0.39158354160902
C          -4.38626628473399    3.33688581341375   -1.32121460757862
C          -4.46480475993017    2.92754035999376   -2.67674854374111
C          -3.88454583900831    3.43061295498634   -3.82596078013374
C          -3.01189591433198    4.63209019467973   -3.99097685470608
C          -3.82651491119353    5.91489847915988   -3.74409153591418
N          -4.83441952743066    6.05319167693290   -4.78134220277997
C          -1.75722765406932    4.58128886739085   -3.10123044381643
N          -0.66742796357497    5.28425123325975   -3.75739177042183
C          -4.33505543028279    2.59309812994095   -4.91579303979593
C          -4.07746987621777    2.64653714899165   -6.23511670713905
C          -4.65112966341865    1.64527843702188   -7.17757571517030
C          -5.55570191282361    0.63585482178501   -6.55152041814400
C          -5.81527822354688    0.60802483273921   -5.23161518997457
C          -5.22254750678353    1.56014192233184   -4.36705623829891
C          -5.29861022160393    1.77298957808439   -3.00476331000006
C          -6.01942577691985    1.10580549544847   -1.98739757072857
C          -5.93721498109504    1.54885717123231   -0.70581000533371
C          -3.49023350513190    0.99911014825115   -7.90436844268252
C          -3.00343572963713   -0.18209690628999   -7.56096559992097
S          -1.64595868141036   -0.92717214167746   -8.40487284795919
C          -1.61241492215602   -2.49443689505168   -7.57772801964352
C          -1.31526815556375   -2.65712246227281   -6.26088317735917
S          -1.32891487192569   -4.30864680467000   -5.79088230837661
C          -1.73125626107444   -4.80001963151791   -7.38505987131188
C          -1.86012878755720   -3.74039868834888   -8.22678178529842
S          -2.28181011599719   -3.88612165810656   -9.94249817462904
C          -3.63236535657099   -2.82143186087889   -9.92768722978345
C          -4.24721586246308   -2.17922536380690  -10.94802745688294
C          -4.05518367518553   -2.17737823947275  -12.38190613645047
C          -3.56319451001121   -3.20356413431567  -13.14395447226034
C          -3.37769119233660   -3.13365748674903  -14.54006448428662
N          -3.19455942356465   -3.12498917557418  -15.67311393273669
C          -3.29801212020402   -4.49051959099333  -12.63674852700618
N          -3.14266245074540   -5.56852384192100  -12.27383603582241
C          -4.62970286840419   -0.93548988508407  -12.88824329868524
C          -5.32458204095483   -0.28661059565480  -11.83430819088965
C          -5.16890794580017   -1.06500433311471  -10.59721615720905
O          -5.64367484191557   -0.83855266524760   -9.50486124482904
C          -6.00616254251704    0.89291618472953  -12.01679493417229
C          -5.99777068350938    1.46269612399759  -13.29331648242613
C          -5.29429830902653    0.81217704543699  -14.33561529156572
C          -4.60853081960747   -0.38346429597321  -14.15413431410658
S          -5.41780480812597    1.69549259220544  -15.82359955052599
C          -6.39203416569210    2.90076183129232  -15.05595698727127
C          -6.61754708732414    2.66171739877402  -13.74567626097148
H          -4.83028043120018    2.41465166763518    8.95391598955815
H          -7.01357721933558   -1.55728148455696    6.81496599987549
H          -5.07347449945545   -1.75674633875655   11.77121396341128
H          -4.49827514962274    0.71565963241353   11.15722441471575
H          -7.16048232136718    2.84880218205051    3.12492861697211
H          -7.79364638973149    6.96597648918891    2.93854060155629
H          -6.53693357367002    4.86309014060774   -0.85969213279749
H          -3.76717188396978    4.17190541510635   -1.03152991205110
H          -2.66122865296096    4.66741522015063   -5.02553033114653
H          -3.16994232097645    6.78767846708206   -3.80940963137921
H          -4.25037476494908    5.88228035774318   -2.72574742161089
H          -5.38830759338733    6.88906149849773   -4.62970462388041
H          -5.46084003390003    5.25423191095525   -4.75933591141255
H          -1.44686026048672    3.53964368906303   -2.97922606868267
H          -1.99061468109108    4.98327790365183   -2.10178112942134
H          -0.89720840455095    6.26614633989619   -3.86912920439181
H           0.17837810374358    5.22658345243653   -3.20104011952297
H          -3.42792013365663    3.39887371226841   -6.66081557303138
H          -5.22659329108772    2.19034194748400   -7.94105384196018
H          -5.98805977619048   -0.07865772644462   -7.23394020149803
H          -6.47901264224455   -0.13559613046269   -4.81433628139447
H          -6.63673392559002    0.25655277076970   -2.23883277535572
H          -6.49131609622380    1.07756438894183    0.09128387830612
H          -3.04111693129568    1.56603475080359   -8.70667051535538
H          -3.41213561259713   -0.77364942031166   -6.75771082754062
H          -1.08716090393272   -1.89347341296324   -5.54423602289068
H          -1.86247990980546   -5.83737798144306   -7.61779248468451
H          -3.99508859698341   -2.57101185142697   -8.93830050714056
H          -6.53446056393894    1.35910184007838  -11.19947085634106
H          -4.08435069355730   -0.83999212764441  -14.97729467665446
H          -6.74145584122225    3.72759484930697  -15.64324669768366
H          -7.20100619721498    3.30160319016157  -13.10868040995903
