116
 SCF done       -211.869754950124          0.000759139323
C         -10.89944915434106    3.99263621996620   -9.35614560732383
C         -12.26442068533134    3.87271011822971   -9.29801383185486
C         -13.09992931847053    3.77096632439721  -10.42916905956288
N         -13.83714517295286    3.69741508813192  -11.30639957483107
C         -13.02248222075632    3.82408716527286   -8.11033786272824
N         -13.70467250527314    3.77336427346032   -7.18733385673655
C         -10.09205004002705    3.95835867039574  -10.56828768796690
C          -8.72320468291061    4.02245491331087  -10.20628984654837
C          -7.71037143250011    3.98985305896252  -11.13365268174224
C          -8.06288634991487    3.88350738911783  -12.48245742612663
C          -9.43215681909451    3.82358226822483  -12.83460676143933
C         -10.45758542013681    3.86040749093367  -11.89694287241017
S          -9.63352599757937    3.69585309613850  -14.55358798760814
C          -7.91901621682313    3.71943323620092  -14.78128196316124
C          -7.22140830376738    3.81966515970131  -13.62884433778002
C          -8.60614690592683    4.10930746200032   -8.74267444365069
O          -7.58179579204868    4.25227754217821   -8.10226278932679
C          -9.99626959689317    4.08771558938211   -8.22855893310702
C         -10.34674622506578    4.27903119591733   -6.92134385982048
C          -9.48717938580200    4.20405712067099   -5.80501152312641
S          -9.80678623870723    5.27390496637581   -4.46620806835521
C          -8.38622425238450    4.80008620999447   -3.62611283222178
C          -7.73773072577335    3.75697191536275   -4.29418021712302
C          -8.36572222612255    3.41012926413934   -5.53323516725106
C          -7.88642655755916    2.28224311977538   -6.24958350751401
C          -8.56396404452396    1.73867825690787   -7.36146363813222
N          -9.09147113962613    1.22711600785559   -8.24272721394734
C          -6.76712797674368    1.60733830181865   -5.79547585569730
C          -6.15189366206222    1.95241644740894   -4.59298166873567
C          -6.64832076024938    2.98348059165501   -3.81568462381742
C          -6.12739619722266    3.13856026575526   -2.51430528221394
N          -5.69631223496204    3.14860007258346   -1.45018128932072
C          -7.96786007557682    5.48200160419692   -2.42383558553931
C          -6.66673017271256    5.90797699707990   -2.29129544014858
C          -6.26303807388970    6.56733786664962   -1.11270838651174
C          -5.04977146860256    7.11665799981606   -0.71945192749411
C          -3.75065486352074    7.28935655639069   -1.43573565952461
C          -2.77915517536357    6.12716238344828   -1.12378846088191
N          -3.21546311127757    4.90651184810594   -1.76870099248762
C          -3.87481935642359    7.46044960135960   -2.95647476007643
N          -4.99880002071478    8.31583661252700   -3.29808752252247
C          -5.22481855631590    7.57103227131640    0.64325187864230
C          -4.35292683732435    8.10629711935915    1.51746627968571
C          -4.75886352377921    8.46944319370501    2.90428794192268
C          -6.19270737491464    8.18759190247634    3.23087800369512
C          -7.05424186888409    7.65963227597642    2.34004652357583
C          -6.61620986433062    7.31697397041537    1.04076155172112
C          -7.23920966303196    6.72301311613483   -0.03788415096774
C          -8.57782965313941    6.31119970968667   -0.22822469539061
C          -8.93636216068908    5.73414329024778   -1.40124490276696
C          -4.52237485641972    9.93894708177103    3.12005245121712
C          -3.76206828873864   10.42639133912428    4.10910617632176
C          -3.53709867502416   11.81392928186394    4.35059199285884
S          -4.23659472194981   13.02041099633317    3.33899009465505
C          -3.41618452221718   14.31958284219854    4.14585761951495
C          -2.69873198361635   13.83190323488075    5.24463752512355
C          -2.73851932291306   12.40147501646563    5.34230870556580
C          -1.99077313497416   11.76352308080045    6.36641943332637
C          -1.94841126609787   10.36324698518426    6.54273465222600
N          -1.86916928143378    9.23802607959102    6.75407444943522
C          -1.26555091064729   12.52301858659641    7.26791250105421
C          -1.31287126932797   13.91485737844151    7.23312538876133
C          -2.03650835024308   14.57658881616081    6.25703261022673
C          -2.16997273598292   15.97466449470068    6.39007823929485
N          -2.28051262720404   17.09709283474124    6.60265302773865
C          -3.52959120132002   15.61286079337434    3.58131579184481
C          -2.63351818355628   16.63524741498427    3.54729497154719
C          -1.23417579498496   16.73648053496532    3.89965859204575
C          -0.31045691871226   15.72083778404025    3.88981803223384
C           1.04564435522595   15.88150130721411    4.23771963090461
N           2.15154711705214   15.93513750873947    4.54107572078551
C          -0.58151043600673   14.41231972158802    3.45105878831250
N          -0.73461461840260   13.34033526824512    3.06644852902712
C          -0.93411629281430   18.15163114536003    4.06818716924003
C          -2.04439092852873   18.91248807279715    3.61771129953960
C          -3.11796919826469   18.00088193169232    3.19073404859124
O          -4.18539929424014   18.27531572802899    2.69333882694880
C          -2.04888452096512   20.28606832025513    3.63233492422963
C          -0.91260661284926   20.93795518629980    4.12172539464204
C           0.18438795753976   20.16837425908955    4.57920827534268
C           0.19436547151980   18.77900315741518    4.55728763213071
S           1.46924461022568   21.18370185845162    5.15090725066761
C           0.55033804948079   22.60013744176563    4.77640854398592
C          -0.66478502418355   22.33356762543825    4.24929784895237
H          -6.67714195959884    4.03656052315526  -10.82606559486642
H         -11.48548898505537    3.81228098453219  -12.21556760549978
H          -7.53401401590619    3.65563241909157  -15.78049338051794
H          -6.14804125854480    3.84814947114588  -13.57537824196450
H         -11.36129808247099    4.58659355511639   -6.69862369689872
H          -6.39713953190360    0.76410456282018   -6.35941781861973
H          -5.31330818951934    1.37436172424813   -4.23521937257905
H          -5.96620078267416    5.76577403835397   -3.09575383722735
H          -3.28984323172023    8.19974521399691   -1.03136689137148
H          -2.68660037727439    6.04037512476715   -0.02731971350566
H          -1.79409192604165    6.38242039059428   -1.52787763852179
H          -4.10100540231819    4.59359860444836   -1.37924007627868
H          -2.53857599413192    4.16737289240084   -1.61805983222170
H          -4.02766641925278    6.48169995369921   -3.41341348562948
H          -2.90736698778284    7.84437235785648   -3.32475817738311
H          -4.86926878358869    9.24225035746462   -2.90423929603908
H          -5.07102959460648    8.41433334679505   -4.30451648515207
H          -3.32264307837637    8.30911412455486    1.25807441683336
H          -4.11613454707159    7.91879847543006    3.60642625066350
H          -6.50426275743612    8.44729901121077    4.23079328415984
H          -8.08139132122311    7.46987723824925    2.61562345802145
H          -9.30021163874851    6.46373035828742    0.55953083433557
H          -9.95366893877797    5.41583466637212   -1.57728679334730
H          -5.03925256800546   10.59960439900066    2.43725522271652
H          -3.26206876679321    9.74292606112332    4.77933877965553
H          -0.68657446214846   12.02736471884895    8.03229634557204
H          -0.79669499099822   14.48798623295711    7.98853310577098
H          -4.47250693369929   15.82552196429332    3.08420834970585
H          -2.90470575581463   20.84088895199146    3.28050372247811
H           1.04739768160284   18.23388465051782    4.92630006590077
H           0.98369225034565   23.56032782059044    4.97875429899158
H          -1.37284917857662   23.08778557597763    3.95722624125739
