114
 SCF done       -187.687230584963          0.000806275805
C          -7.67293429152410    3.22194655419433   -8.56513447727593
C          -6.98856758067403    4.32868959706575   -9.01288696351947
C          -6.72109347092387    4.60008929775993  -10.37020309238186
N          -6.46353550097853    4.89394280508953  -11.45044955760569
C          -6.45048922920778    5.36323522094950   -8.22337165202667
N          -5.97947896982955    6.25295273520393   -7.66521991765986
C          -8.20577323678969    2.17803921830712   -9.43423349729785
C          -8.85649581355611    1.21351522505579   -8.62939643120318
C          -9.45906022683664    0.09490377342018   -9.14977742938896
C          -9.41644143100198   -0.08431347049291  -10.53601872345179
C          -8.76539459980905    0.88487202846394  -11.33389408321342
C          -8.15725299893312    2.01801404827716  -10.80631263444715
S          -8.83285314565321    0.46068656119042  -13.01690834342677
C          -9.71277548694787   -0.98121533871866  -12.64302649391308
C          -9.94940009646684   -1.14399030738219  -11.32320899071110
C          -8.76394149863886    1.61095938006615   -7.21030568011809
O          -9.24836088454910    0.99417446285299   -6.28188469823669
C          -7.99512823965618    2.87115661378428   -7.19402823169079
C          -7.60802261794785    3.63728344027428   -6.11998800651046
C          -7.76189758095225    3.47378249068688   -4.73647338968646
N          -7.26298181237448    4.42242449525255   -3.85028004385612
C          -6.83003491459588    5.75337888651629   -4.21145016069696
C          -8.01322907668638    6.62584319262887   -4.62927215050714
C          -7.49197717725469    4.00342304177716   -2.58464368512210
C          -8.14657836181631    2.76925189615074   -2.63670865994032
C          -8.30684334782543    2.43407313533057   -3.96526753554635
C          -7.06732691680059    4.68207745822219   -1.37020577340502
C          -5.78669238256137    5.14047486705316   -1.20555043226391
C          -5.40252217752516    5.72310885200018    0.02329580546050
C          -4.18578101179111    6.23653875823687    0.44206677112115
C          -2.93800711803263    6.26858221765982   -0.37334966886685
C          -2.11819974531422    7.56124489553774   -0.22150442960974
N          -1.50909040633212    7.88833479228393   -1.49906044008368
C          -2.07608608471223    4.99841098605551   -0.10256897959804
N          -1.64952927219907    4.77880769751174    1.25813220933951
C          -4.36536598763901    6.65814234299444    1.81326710746212
C          -3.51212353553083    7.16695065189876    2.72191272698852
C          -3.94645548074939    7.52607780282629    4.10232141463398
C          -5.38005311741014    7.22854106991416    4.40448810642211
C          -6.22068521499704    6.70581771380920    3.49275719807491
C          -5.76546427830848    6.39496598069366    2.19022816237582
C          -6.38208043570202    5.82507220681628    1.09572262146470
C          -7.69512657309957    5.34083218453598    0.88986340429851
C          -8.01820136440838    4.78020302134110   -0.30209564197538
C          -3.68651796171587    9.00428095452842    4.27771030161949
C          -2.76401418257733    9.48367005971616    5.11585936401182
C          -2.38092848240070   10.83854419160263    5.40119671206739
N          -2.59409525089939   11.96019638727396    4.66180762818130
C          -3.19168879161971   12.03822910545503    3.35154143272520
C          -4.68623499211360   12.35176931548663    3.42003308705109
C          -1.99295532696201   13.02860782932280    5.28053396794394
C          -1.40408690289687   12.56169155473459    6.46271254164541
C          -1.65259543702668   11.20662739393611    6.53835387645951
C          -2.10447090202256   14.36269066999105    4.82714040041966
C          -1.30132060575763   15.41406488406057    5.15869640115397
C           0.03228274651160   15.46422722944096    5.71195990744066
C           1.01074279376423   14.51776118827751    5.53472274044261
C           2.32925707894390   14.65000681349992    6.00952947799201
N           3.40787463239285   14.70436623793220    6.40008871410630
C           0.81922101581662   13.35486175477454    4.76350209228545
N           0.72211973583698   12.42864865712046    4.09128829878204
C           0.23520252124827   16.80967883561357    6.23534816624637
C          -0.84884292418468   17.62527916409018    5.81780062735031
C          -1.81023674707435   16.80373947003333    5.05609876989368
O          -2.82703356427067   17.16493578070555    4.50369312861667
C          -0.92344449055199   18.96111019160351    6.12895599733582
C           0.10980740385472   19.51366215298826    6.89314243863455
C           1.18018969639443   18.68805975671309    7.31193740415683
C           1.26290658306860   17.33798041577840    6.99073367304383
S           2.33384304803262   19.58203201883495    8.25130833165819
C           1.39578718537275   21.02470061178580    8.07483431996037
C           0.26915770099139   20.85266547711706    7.34994684038913
H          -9.94576457858546   -0.62066517519744   -8.50516742002456
H          -7.67416213755081    2.72390473229862  -11.46053715083810
H         -10.00212083497560   -1.62726502317830  -13.44904112471299
H         -10.48072755234746   -1.97999425726841  -10.90510742858601
H          -7.06160395724018    4.52878797489183   -6.39092365000902
H          -6.09417623025258    5.70622311024720   -5.01857560791357
H          -6.35089316071245    6.20332291456652   -3.34150020801586
H          -8.53757505262483    6.19671944766637   -5.47906392070144
H          -7.65419862627905    7.61172095524106   -4.90928989240647
H          -8.71504083295152    6.72697679653599   -3.80400590118179
H          -8.43069726468038    2.18415583045437   -1.78438698656316
H          -8.75528546257562    1.54654643071706   -4.36033732570136
H          -5.05080877565609    5.01286547828599   -1.98672680655097
H          -3.22742027739485    6.22527438055649   -1.42823831718531
H          -1.37578078289410    7.45568479680631    0.58920853572798
H          -2.78570911769737    8.38716409244070    0.04141926452202
H          -0.84396007459123    7.17154687677104   -1.76955663560379
H          -1.00865525868996    8.76818205555716   -1.44380557689112
H          -1.18014581040958    5.04306135413149   -0.72816592854318
H          -2.65775604002311    4.12360150554285   -0.40521805033461
H          -1.07328835741473    5.54314015782053    1.59174647565365
H          -2.44929379972332    4.68948876161960    1.87498607925450
H          -2.47583380956482    7.37289599311282    2.49633430925711
H          -3.30854178338871    6.98404304124919    4.81525109649050
H          -5.71016050124668    7.47156200035953    5.40296485650193
H          -7.25139009250196    6.50408197877521    3.74666753164711
H          -8.42223521923373    5.41372341691843    1.68515329792695
H          -9.01335628561905    4.40153470065706   -0.48125474670279
H          -4.32407275096550    9.62934663957806    3.67476712482179
H          -2.21264423484056    8.77262918150359    5.72105317268072
H          -3.02107441916955   11.08841157653918    2.83976973094722
H          -2.67344812875756   12.81758540600459    2.78677870804572
H          -5.20635212756044   11.62823242385428    4.04353344319252
H          -5.11377369084281   12.32668090677143    2.42130272144586
H          -4.85499600613782   13.33907946528931    3.84213438458281
H          -0.89904413487708   13.16574989345665    7.19065353916325
H          -1.35406240218858   10.54137909147081    7.32431346267551
H          -2.97878047614449   14.62641077559534    4.24197118784170
H          -1.75368409296734   19.56284995063784    5.79307080785719
H           2.09361645089979   16.74365314060602    7.33467853566222
H           1.75266494706850   21.92646177520641    8.53320599551095
H          -0.43544015627372   21.63624487269333    7.13742613221034
