108
 SCF done       -188.454903360938          0.000327133434
C           7.42903241135825   -9.67068086427254   -0.36206972219958
C           7.47606633662957  -10.15542222882189   -1.66343164242361
C           7.12056601174256   -9.35274781036517   -2.73806606856127
C           6.71668835236489   -8.05449627987982   -2.47793781372070
C           6.66803113593491   -7.56528502568227   -1.16431003042987
C           7.02137780073187   -8.37046050062824   -0.09663206647817
C           6.17961152590302   -6.16280844823529   -1.15509756164582
O           5.81033943392256   -5.52962991967361   -0.19910640106488
C           6.11927332835501   -5.77582492892286   -2.59228533797499
C           6.29612467207015   -6.99961976239123   -3.42286144122741
O           6.14374858207911   -7.08438050068155   -4.61927404579111
C           5.96562255085848   -4.55692202447320   -3.14313876872307
C           5.98662839926384   -3.30381746086127   -2.44758377591890
N           6.77697671764615   -3.08143558576609   -1.41905226692648
C           6.58591330760446   -1.78529170858093   -1.08042120370798
C           5.61692538016383   -1.13788071420867   -1.97269492267537
C           5.42888614558680    0.26746238761075   -1.59009732773753
O           4.73048328440909    1.11285981077611   -2.11209410436388
C           6.31448122935519    0.40636004404675   -0.41712907396453
C           7.01017213623044   -0.86895952650804   -0.14820653982113
N           7.82715233898108   -0.74970595907888    0.92772793863772
C           7.67719486222009    0.48537183925314    1.33662641903572
C           6.74339430308733    1.26315940807263    0.54361991665483
C           5.21245974456097   -2.10847907518430   -2.86042967554278
C           4.27168690479349   -2.07755080491467   -3.92592109628258
C           3.67376140344959   -0.93101976944504   -4.32753640686002
C           2.72113089372186   -0.78068050886081   -5.39036216789497
C           2.41785145965543    0.50208934487925   -5.81349667794571
C           1.51117322437257    0.70647595295444   -6.86338613950061
C           1.06927757445093    1.88001743550817   -7.47448006992855
C           1.55743814976377    3.25172502430450   -7.17123937069757
C           2.12137721434562    3.94480689339794   -8.42942834070955
N           3.19380787524770    4.83581858582556   -8.03413789454283
C           0.46319279076539    4.09823406641615   -6.49664381401424
N           1.02869149444300    5.34889038800887   -5.99995586927513
C           0.12047132475616    1.48864644388279   -8.48922745522574
C          -0.60813113240347    2.21290463091628   -9.36259253604527
C          -1.46375226234791    1.55181418767664  -10.39296982778557
C          -1.56596015431333    0.06608491346023  -10.26231118668681
C          -0.85401912669953   -0.63981721508613   -9.36322654898921
C           0.02102515424979    0.02119459635471   -8.47173730869245
C           0.86487391674779   -0.44110320726182   -7.47663387581102
C           1.17461387688613   -1.73992659438785   -7.01651993434153
C           2.08005020005710   -1.89852712768396   -6.01520668258642
C          -2.81966023328248    2.20919124060763  -10.44830948003895
C          -3.82360551615660    1.84712042921356   -9.64095826010204
C          -5.17227291015169    2.32976222610690   -9.69228818891909
N          -6.11946119846774    1.55094989494838   -9.19023832727908
C          -7.29594301914246    2.12505215538859   -9.50461302042256
C          -7.08585904203088    3.35965573641773  -10.26564114522614
C          -8.37233435035222    3.99509173213075  -10.60836481072360
O          -8.56243034014712    5.01981611674054  -11.22432680143288
C          -9.34795405997435    3.06527067828052  -10.01272869664552
C          -8.65192530117280    1.93953631436943   -9.35128025071093
N          -9.54229188672393    1.09299252127570   -8.78649501030307
C         -10.72096804833737    1.61375314541396   -9.04194245621166
C         -10.67183805747257    2.84686814210711   -9.79637716813223
C          -5.72695522248989    3.53660489627906  -10.35377041128611
C          -5.09071000361372    4.69963734666741  -10.88125475752904
C          -3.90287300441495    5.20368977855722  -10.47000003889800
C          -3.36670526584293    6.40780395538873  -10.99527255632099
C          -2.18716745061216    6.96036161181538  -10.60588515943089
C          -1.67643821395314    8.25002154278755  -11.12682313681363
O          -2.16050830401405    8.91963479107289  -12.01064783954127
C          -0.45800267257688    8.54474968670878  -10.33352403601005
C           0.37908854434714    9.64341835566685  -10.37925613355316
C           1.45261220824469    9.68634294797236   -9.49793860227677
C           1.67168750251278    8.66269657557647   -8.58571334125686
C           0.83348123189396    7.55613460374439   -8.53320255785627
C          -0.22436580010940    7.50363401912306   -9.42352485780448
C          -1.24128578073777    6.44622747061643   -9.60288879728024
O          -1.25312878311127    5.35557981407381   -9.05947710242188
H           7.71304986656255  -10.31769783873411    0.45461685672927
H           7.79299765496509  -11.17263942708462   -1.83962757174761
H           7.15339945923048   -9.72034206322026   -3.75220661538729
H           6.98209442862052   -7.98528942986188    0.91056335610890
H           5.84725241083486   -4.51445773439143   -4.22228365335319
H           8.22646842840133    0.84679822127761    2.18867100755043
H           6.48280204464697    2.28888778233927    0.71567281201721
H           4.06440178271159   -3.01861320545689   -4.41630962738355
H           3.94800565637157   -0.01480163325182   -3.81997411734813
H           2.89685124354087    1.34365410616195   -5.33513887466195
H           2.39487324503876    3.16843340553632   -6.47058681508190
H           1.30248969113643    4.45057969290518   -8.96216374638727
H           2.54648156179137    3.18951743615852   -9.09925850314337
H           2.83138808402499    5.52856815955932   -7.38714617045641
H           3.58438956215934    5.31243953731777   -8.83868556043780
H           0.00021809506632    3.49385809049400   -5.69934021918779
H          -0.31156094536542    4.35091736587753   -7.22266110855321
H           1.71187429480892    5.15081943150362   -5.27337808711496
H           0.29434261692898    5.90928784861856   -5.57789203460107
H          -0.60469676753785    3.29207264056111   -9.36328689355161
H          -0.97149894725222    1.75864890557695  -11.35830365175431
H          -2.24623592617815   -0.42021767965054  -10.94439895739387
H          -0.94386228971431   -1.71486265811970   -9.31102100917538
H           0.69129316750227   -2.59490289321276   -7.46576542738063
H           2.31233153605888   -2.89046809984846   -5.66055067480498
H          -2.95559128539484    2.97738525644604  -11.19443970818644
H          -3.68185908385764    1.03784138073111   -8.93607673328281
H         -11.61548088649888    1.12440535508655   -8.69760779184291
H         -11.52025948264035    3.42759747709172  -10.09996103345281
H          -5.68137554539053    5.25385139112158  -11.60213825393463
H          -3.33947564117755    4.70761547114924   -9.69298856491326
H          -3.93886846707382    6.93744067421837  -11.74985486250833
H           0.19496217752425   10.44092759832679  -11.08248908704894
H           2.12331264836339   10.53260791201803   -9.51755073737589
H           2.50692590620815    8.72910717106839   -7.90407131033999
H           0.98475389990411    6.76749021360877   -7.80979496909207
