106
 SCF done       -204.915055629108          0.000576787793
C           7.59385822042707    7.75670806087182   -8.42888008382441
C           7.27312244557918    8.32803943335448   -9.62920606942295
F           7.47551335130715    9.64345218168247   -9.81057952013297
C           6.73399369631760    7.59060504703399  -10.69335187899421
C           6.52280134338909    6.25024685471403  -10.52988846783477
C           6.83977987526400    5.60847971830390   -9.31428456165754
C           7.38176692519645    6.37708602593905   -8.24124261925133
C           7.69311780494987    5.75908990866110   -7.00800689194495
C           7.47693626838628    4.41566755266441   -6.85706129362682
C           6.96045741138324    3.64655201440041   -7.94368306275188
C           6.63850451652356    4.22226867182904   -9.14089242262987
C           6.87172892308100    2.23468165607022   -7.54479769196106
O           6.41025636237071    1.29715750134224   -8.15274275901477
C           7.51840752545593    2.17638887617603   -6.19703148592081
C           7.65964996942569    3.53794837623479   -5.70646728377482
C           7.73122299795698    3.92034144367017   -4.39876668635680
C           7.61902597763914    3.01285633839532   -3.32272667048983
N           7.43821263525387    2.31726354537415   -2.42836838284046
C           7.80080150854246    5.26691771104524   -3.98126746304625
N           7.85621621291136    6.34877146260786   -3.60476904393409
C           7.97171385254039    1.00068239508401   -5.71346215557467
C           8.83634754316458    0.80435045162064   -4.58837652003308
N           9.81291323498967    1.64505698097177   -4.31045616055277
C          10.49379954725279    1.09211431143889   -3.27645258151891
C           9.92145629940567   -0.20075930268907   -2.90129200658587
C          10.65875873294360   -0.79365200627751   -1.77466059212916
O          10.48447902252120   -1.86111507046406   -1.23392679366955
C          11.67138697862793    0.24609411281868   -1.48100659269857
C          11.53975713032308    1.37243845833638   -2.43442265393189
N          12.44777755598149    2.34167298331147   -2.15882547644162
C          13.10391647813582    1.90757522598032   -1.11305926841495
C          12.66084627821098    0.60951981873525   -0.62978891656809
C           8.82728959898923   -0.38928515700324   -3.70988222732914
C           7.89519503810237   -1.45887486380022   -3.71489743679350
C           6.65732842763414   -1.38915291119768   -4.26344818155859
C           5.73394549232039   -2.45856451125453   -4.36379672419156
N           4.53374192577093   -2.27085207377927   -5.01247941765604
C           3.87152689757700   -3.45316477728435   -5.04469360562414
C           2.72843596786820   -4.07249213791041   -5.50789429468643
C           2.83052809967723   -5.42408469382101   -5.11466919069932
N           4.01584608176352   -5.60661299402637   -4.42427320728401
C           4.67710838305500   -4.42374075054206   -4.37527727255595
C           5.84107511599121   -3.79832406374233   -3.95067949750142
C           1.93543184678322   -6.47910825435603   -5.35241588718044
C           0.79931639207036   -6.36536509142733   -6.10672300195798
C          -0.09560438462742   -7.43093697158413   -6.29879943545836
N           0.07149764518734   -8.62986927078545   -5.73182756459415
C          -1.00426354919146   -9.34873798056456   -6.06308560675584
C          -1.94707117230414   -8.57084766182671   -6.88588583252087
C          -3.12249734022484   -9.38920949083240   -7.24525680538338
O          -4.09012694350743   -9.06088826456023   -7.89920429612140
C          -2.81819498785871  -10.67860736374210   -6.61473418950494
C          -1.52783506391970  -10.61705669915343   -5.90057593875574
N          -1.23995223300471  -11.80443334984250   -5.32859010883008
C          -2.25120053180653  -12.58999391037250   -5.63982199462060
C          -3.26499545722476  -11.95425997280210   -6.44202486433486
C          -1.35806201392079   -7.34828300866226   -7.07650826691138
C          -1.78368757880052   -6.21364296679154   -7.82022252585460
C          -3.04686316548084   -6.03798878026281   -8.28422027215933
C          -3.48890444425373   -4.93025712326881   -9.05147788688243
C          -2.95679881473771   -3.68562036201390   -9.23393402680676
C          -3.42103294915181   -2.89474091478648  -10.41227683060547
O          -4.39450608796170   -3.11751036741830  -11.09270094602064
C          -2.41475128570213   -1.82995507357297  -10.59251852500913
C          -2.30563491198606   -0.90875862405711  -11.59354853151943
C          -1.22714314262787    0.00436484290259  -11.57579198818065
C          -0.27227305557631   -0.06474298250820  -10.52014828631003
C           0.80756778713918    0.83978301305238  -10.51373211554964
C           0.91197019150358    1.76631864627045  -11.51313389540443
C          -0.01845214657232    1.85382743921967  -12.55728758904318
C          -1.07019893733783    0.98046637087107  -12.58106010577440
F           1.94231992811067    2.63363365558745  -11.50616792606052
C          -0.41643587258261   -1.02480360841610   -9.49175976922630
C          -1.47820074794891   -1.88805227150892   -9.52169988019298
C          -1.90145933289897   -2.93463185343320   -8.59208213910138
C          -1.50142633264743   -3.01181103562032   -7.28109082942191
C          -2.09311407167713   -3.85817156328344   -6.32196745742675
N          -2.54408132997344   -4.51418258464963   -5.49554359248608
C          -0.45110701696140   -2.25277894034604   -6.73505508556375
N           0.44489437934201   -1.71936685449021   -6.25095978441237
H           8.00290626106869    8.35619349259886   -7.63077496306170
H           6.49882801559832    8.09689930316162  -11.61605263483930
H           6.10782062838051    5.66134274466912  -11.33380556143139
H           8.10557713746753    6.36042027350966   -6.21330470592723
H           6.23675819729443    3.62606370123702   -9.94651338592579
H           7.71066339252161    0.11324636984792   -6.28145783012659
H          13.90044353432640    2.49407344628934   -0.68896583131342
H          13.06493483926619    0.08998694409736    0.21634708626224
H           8.21765082398049   -2.36050527422671   -3.21337658249028
H           6.31656442258349   -0.44512932653957   -4.67065502372189
H           4.21402420466744   -1.39812638100740   -5.39780247783186
H           1.91248600764186   -3.62088520718247   -6.03249282078157
H           4.31726603432804   -6.48584721773542   -4.03945869659373
H           6.66658748577537   -4.22294690733522   -3.41740035505309
H           2.15064798456121   -7.44837975128152   -4.92334967320627
H           0.55956355186900   -5.41700274981766   -6.56244415010594
H          -2.26798093334081  -13.60988132194909   -5.29665183065358
H          -4.16147745923728  -12.41865987268320   -6.80239329889364
H          -1.02093864304233   -5.48179996555093   -8.05319520555754
H          -3.76874666140382   -6.82855784722606   -8.12448644201513
H          -4.37287016806794   -5.11194127717546   -9.65739280238263
H          -3.03355265764122   -0.87627016767199  -12.39013145941794
H           1.54225324151850    0.80346761997076   -9.72447317794606
H           0.11483972618703    2.60604526196362  -13.31847125912775
H          -1.79916235735095    1.02780973074552  -13.37580707760479
H           0.32576246904607   -1.05566819666269   -8.71003094475980
