154
 SCF done       -271.498826165518          0.000539815901
C          14.53257643182984   -2.12582627854259   -5.12089679017654
C          15.39561564296374   -3.16403141340761   -5.33282930217086
F          15.03435662795159   -4.17035856258923   -6.15286383982966
C          16.65678064314440   -3.22910815714956   -4.72578990851369
C          17.04053047556821   -2.21790059627308   -3.88935379436401
C          16.19000653969654   -1.12298855059964   -3.63461751796848
C          14.91277348840011   -1.07434700534637   -4.26382826472344
C          14.04583075839079    0.01924577779748   -4.03343759748639
C          14.44407356779746    1.03061135815052   -3.20119940615397
C          15.71478547443703    0.96645935745438   -2.56166870488153
C          16.57237011750795   -0.07406334254298   -2.76790982450067
C          15.87848566634058    2.14765774234371   -1.68702428216715
O          16.82710006088743    2.41722578961113   -0.98407441808974
C          14.60015313248778    2.88762273509234   -1.78746161505147
C          13.79407757339741    2.28527307501852   -2.82089350964984
C          12.70807015160740    2.82713563819008   -3.46243130535846
C          11.95833750465104    2.15594904252450   -4.44953061245158
N          11.29328819854445    1.65859552387396   -5.24328786775559
C          12.25629186575863    4.14996547951840   -3.31725615950508
N          11.86668086603288    5.23125937960651   -3.31387622072737
C          14.32454557927321    3.89269476292987   -0.90515999077973
C          12.99898093122420    4.36061368013139   -0.51237134060287
C          12.69521195031154    5.71955144966652   -0.68333381577274
C          13.74687046164207    6.44011588399023   -1.39051183421513
O          14.73244125835455    5.83341112304818   -1.78046399214514
C          13.54542991644074    7.88141843301302   -1.66619501618121
C          12.79435700800101    8.40711132685444   -2.66329376600431
S          12.83799814915304   10.13072056544475   -2.65038167712682
C          13.88193438247172   10.14210735323222   -1.29363992628632
C          14.19027253845199    8.87860093670737   -0.87014795545093
C          14.96476027544665    8.45305484363976    0.30659770733565
O          14.77970177540857    7.34507123372461    0.77798425298618
C          15.93437830068435    9.40991039257951    0.88262033018352
C          16.67148146056463   10.28097984551047    0.08329991613519
C          17.59087808935533   11.13666461859817    0.66160694061171
C          17.77659497197086   11.13718577416023    2.03498702105104
C          17.05605122047107   10.26297210788333    2.83338849099576
C          16.14765725634637    9.39452230985715    2.25994410424330
C          11.46008471077992    6.22404033146288   -0.29424501552855
C          10.52050192053758    5.37054766593389    0.24257690060206
C          10.80535180324367    4.01430906249023    0.41980234679211
C          12.05213617513214    3.51839736571417    0.04323011676277
C           9.80411517930792    3.11146410487519    1.00087907757870
C          10.14205371230488    2.27675359051616    2.03169505775457
C           9.16426754240447    1.42882354360517    2.59884448752409
C           9.23326022040521    0.53740631262336    3.66050082581082
C          10.44788587695841    0.29126012973962    4.49586183102858
C          10.15519994092310    0.30669823011144    6.00580455374090
N          11.31715199680593    0.81588082705118    6.71789039702661
C          11.19275625920287   -0.99177125422353    4.06999017372172
N          10.43795139338647   -2.20094833629041    4.37020671534627
C           7.93222867844952   -0.07992115571688    3.76602781394554
C           7.43740292462346   -1.00972656070068    4.60828426914087
C           6.07106737276824   -1.56854073720693    4.44262372735519
C           5.24106598530584   -0.89850382782801    3.39756441753348
C           5.72894656791655    0.06689137596658    2.59399986716750
C           7.07029108466795    0.49219944885853    2.72022193054584
C           7.82659478179768    1.42239195966993    2.02897187828462
C           7.51608220089357    2.29042886130657    0.95947856477876
C           8.47600778475647    3.12239715500070    0.47561833889576
C           5.33054389845804   -1.62152255325056    5.75441485019093
C           4.91803885342081   -2.76081361897801    6.29688442292534
C           4.18984846307240   -2.90340838134517    7.55684513143261
C           4.46373690446817   -4.01072257371594    8.37639655209139
C           5.64121596990398   -4.86556113803840    8.05322125442186
O           5.59860426394699   -6.06779058130486    7.92472938379807
C           6.87319452956534   -4.05494327538817    7.91589244676612
C           7.17318679398421   -3.00584587398452    8.74022463322635
S           8.63553963063355   -2.23600380328439    8.30661281861920
C           8.83524449860951   -3.28893275429896    6.95504379316310
C           7.84783520875723   -4.21860808593989    6.88209161865320
C           7.67711395828961   -5.17447157137669    5.74901213692164
O           7.35610543510721   -4.76029686402845    4.65091923638160
C           7.88812194526207   -6.59682744518505    6.05505270521633
C           7.49544737476486   -7.55433916668281    5.11918360226590
C           7.66851195448328   -8.89756067228024    5.38496695721379
C           8.24133913762478   -9.29651114751038    6.58268972029227
C           8.64377841830469   -8.35039471639061    7.51308943779645
C           8.46830058630859   -7.00547625775564    7.25579218050148
C           3.69014750335792   -4.26143708741532    9.50034116016042
C           2.70814740579348   -3.36883911374695    9.87772784154457
C           2.47262427644323   -2.21868922674808    9.11798084487017
C           3.18529989517012   -2.02705149429180    7.93324530020192
C           1.47124342427369   -1.25174498108435    9.50667354942879
C           1.12906337849560   -0.86389244337995   10.75446904219562
C          -0.15534205490588   -0.13158448124681   10.97031045063394
O          -0.83739887804644    0.38999091133166   10.12006673924773
C          -0.42273972058854   -0.24199092146872   12.41489730852030
C          -1.53357943767446    0.13802355719771   13.11164769063856
C          -1.58859804758487   -0.09703278719445   14.50340752375071
C          -0.48465613676819   -0.72847667868954   15.14825105876898
C          -0.54944487246222   -0.96681300991344   16.53508582416047
C          -1.66387982076653   -0.58714629794761   17.23011676579916
C          -2.75854345638950    0.03525857821538   16.61443954721850
C          -2.71286074151648    0.27383513682702   15.26897493957329
F          -1.72716364531679   -0.81404751226001   18.55421037115149
C           0.65599708078963   -1.10566930575846   14.40296752260513
C           0.69071243229379   -0.86096592051981   13.05528504171818
C           1.72273561548707   -1.11510476315250   12.05663024009681
C           3.04945217985143   -1.33016106372987   12.32538330000529
C           4.07826433386755   -1.35378070333876   11.36352548508526
N           4.98628216349305   -1.33160203067273   10.66001888790765
C           3.56624738874881   -1.48159648334707   13.62918227282392
N           4.03407818308792   -1.62920268671482   14.66705167744730
H          13.57013123848194   -2.10653027287022   -5.60809216530145
H          17.29573052549263   -4.07329574803804   -4.93139166982577
H          18.00758013551371   -2.24547519673803   -3.40988523268766
H          13.08376268935251    0.02455390726132   -4.52039177724814
H          17.53424101860096   -0.09647062286751   -2.27777413339836
H          15.13629035210961    4.14647195595318   -0.22702583918081
H          12.22446289178865    7.87767658768366   -3.40051411207296
H          14.18436687238568   11.07545183684871   -0.86149194549720
H          16.55103921296512   10.26153132878281   -0.98952759795437
H          18.16824618668851   11.80371137346227    0.03875706665265
H          18.49144011936670   11.81224908724466    2.48154657754018
H          17.20908127225603   10.25478866309183    3.90217535400064
H          15.58439442109031    8.69910908016998    2.86419421022589
H          11.23772553082403    7.27112073657930   -0.43149427153722
H           9.55512429378345    5.74859563445834    0.54426490372560
H          12.27418926167362    2.46867038711103    0.17372373544867
H          11.14525960597164    2.29033951061187    2.43269820284586
H          11.14012280918867    1.12029048638048    4.31537227279932
H           9.86201343544425   -0.69929949268397    6.33285087396562
H           9.32594448735696    0.99108977363158    6.20298756465396
H          12.09175995280668    0.16616540181208    6.63257152611193
H          11.10785402431144    0.91359370497958    7.70505985705620
H          12.13414830359356   -1.04980124016213    4.62477207739481
H          11.44046527792577   -0.89881501572029    2.99966905727735
H           9.58308697418259   -2.21804573842751    3.82153410624679
H          10.98207069814099   -3.01424763462431    4.09845947571189
H           8.02302371217366   -1.42604430418342    5.41267687806591
H           6.23122434945217   -2.61676647363675    4.12972175696540
H           4.22141819634856   -1.24162699083720    3.31016262765322
H           5.10452506651080    0.52258020441619    1.83888094812134
H           6.52094465850375    2.28795718148220    0.53962080340856
H           8.26147883075214    3.79057815356424   -0.34543141363327
H           5.15965890153153   -0.66990331182015    6.23772682169132
H           5.13550791120829   -3.69284624310670    5.78891275358449
H           6.61254172155081   -2.64966645230141    9.58292462895975
H           9.66137090309247   -3.15303579391896    6.28016253451768
H           7.04740954640092   -7.22046120604817    4.19492546386485
H           7.35547175277098   -9.63659616060949    4.66248434616860
H           8.37391747900595  -10.34765918055231    6.79288480400174
H           9.09093532967000   -8.66632812186830    8.44394037632378
H           8.78209923519880   -6.26965395895081    7.98123824811712
H           3.88719540270691   -5.14465606896804   10.08934888218794
H           2.10314846942524   -3.56760143151869   10.75032784620223
H           2.96468042604798   -1.17150216634500    7.31264638457792
H           0.88794302697766   -0.80995471469561    8.70483000072899
H          -2.36219745198980    0.61070565123016   12.60595463433139
H           0.27577849288689   -1.44101495763673   17.04296529851453
H          -3.61109440007930    0.31159530625615   17.21424433584682
H          -3.54346493703522    0.75204566355241   14.77204375484077
H           1.47177108914717   -1.59045356095145   14.91540911466879
