132
 SCF done       -231.962406608640          0.000702919678
C           9.81291781595155    0.43731487171348   -5.22806919085602
C          10.09496754442270    1.31578413819533   -6.23646129055975
F           9.45877663119271    2.50709541835767   -6.28158891370748
C          11.02110350995253    1.03360994520389   -7.24787570939456
C          11.66700679490301   -0.17238196896620   -7.23295688582214
C          11.41745866255311   -1.11690513709777   -6.21708728722494
C          10.47874553483974   -0.80361607886650   -5.19120579086922
C          10.24154864641021   -1.72005165837777   -4.13983870983011
C          10.93065712482458   -2.90118582145278   -4.11664540791825
C          11.83475284509950   -3.22900138976520   -5.16646451795197
C          12.08167207623459   -2.36580171789567   -6.19282670539324
C          12.38644121055757   -4.58164914563924   -4.92588023930947
O          13.19856849082799   -5.17467894868926   -5.60441363852937
C          11.69185559558725   -5.08196557253928   -3.71883686068197
C          10.96193442458672   -3.98417211195608   -3.13549700085047
C          10.58991023945141   -3.83481984760832   -1.81725515311789
C           9.91226895945713   -2.71172973759679   -1.31244183005105
N           9.32623544881574   -1.83661372901460   -0.85298512545999
C          10.88923152282101   -4.78065422244314   -0.81937912370265
N          11.15446174874192   -5.51046411046971    0.02741931555670
C          11.77048591501901   -6.42172432228343   -3.40421645777788
C          10.86781474194186   -7.17516623835775   -2.63226777209320
C           9.60007227167609   -6.71597290882446   -2.32263557161178
C           8.67451006035818   -7.36323237350038   -1.53410821123363
C           8.99635120687967   -8.62906857210982   -0.86445473762589
C          10.13675555767806   -9.31886701024109   -1.09460770062947
S          11.39148479333134   -8.78624473857721   -2.13842613785703
C           7.90365495419480   -8.86594166283118    0.01068736637334
C           6.98047537458723   -7.81336349765202   -0.08188783504072
C           5.88145762077667   -7.99174445659085    0.78970374977990
C           5.99191519341136   -9.14061527118241    1.50283752922669
S           7.42540099764959  -10.05416179701011    1.15288162766734
C           7.42575171536614   -6.88132722172483   -1.06915768678544
C           6.83416349791179   -5.64104519734834   -1.42648819015137
C           7.01421890331530   -5.05636292343226   -2.63961088802649
C           6.73219846486875   -3.70882665141199   -3.03222226689039
C           6.95353871645408   -3.35755639598620   -4.35158468886136
C           6.76788635101310   -2.03543142931489   -4.78126834000425
C           6.90490436186451   -1.45442228959781   -6.03623280298082
C           7.24164961522095   -2.17529035800843   -7.29661295294174
C           5.96959801075492   -2.43117366587084   -8.12934407532132
N           5.06585197725175   -3.30747164540341   -7.40713284771515
C           8.30428246503719   -1.46850055260536   -8.15544937593995
N           9.05454296177886   -2.45686971600176   -8.91478382298681
C           6.57678357603409   -0.05940188549050   -5.88272115484600
C           6.53549994164460    0.95699996612886   -6.76474376086003
C           6.18856829096292    2.34781661545932   -6.35030926627743
C           5.84086226633718    2.49965524438115   -4.90621310961824
C           5.87764014000263    1.47504649699768   -4.03456742522605
C           6.24680686982203    0.17825151674253   -4.46574532795037
C           6.36096286472951   -1.02982364796732   -3.80954022089870
C           6.15294426777196   -1.41019599602510   -2.46173780869146
C           6.32525653263324   -2.70335423661674   -2.09244062911687
C           5.06769225694132    2.83105379099950   -7.23118953009016
C           5.27175876854176    3.54569579680654   -8.34120282368615
C           4.25346575205403    4.01467239117021   -9.24957896720603
C           2.91880488502588    4.12393972123520   -8.95382527998810
C           1.94293530634872    4.57069100671682   -9.84861098967497
C           2.27217636910061    4.80581213573142  -11.25853407963382
C           3.53008949993030    4.80010662391808  -11.75730589534316
S           4.91332142531116    4.47431744362290  -10.80638502949914
C           1.03295351758183    5.05386625227320  -11.91070621331126
C          -0.00106692872417    5.00691021684240  -10.98029769014648
C          -1.25817184797034    5.26393908938109  -11.56785121661121
C          -1.14636490395148    5.49028149924608  -12.90376038253548
S           0.47637651974374    5.40936775694817  -13.49842670899356
C           0.55160064614400    4.75103884950239   -9.66918614831251
C          -0.23414655674027    4.78335640097627   -8.50545714059168
C           0.18332133832274    4.94273763430088   -7.20838321829429
C          -0.73997602890771    5.05995282584445   -6.16370714019598
C          -0.50907467379195    5.32387364685887   -4.83288326074202
C          -1.61556312057155    5.87150367142481   -4.01322975834116
O          -2.79227226768582    5.90259810317069   -4.30456637990407
C          -0.97238428743719    6.41896499797360   -2.80019642949009
C          -1.52421509406986    7.13184748251986   -1.77724809817958
C          -0.69068602264678    7.60138152035648   -0.73566953131260
C           0.70513175925522    7.31925612711868   -0.77843983554661
C           1.53176330057481    7.80156030811678    0.25441856769688
C           0.97904753361145    8.52587328943735    1.27372225869438
C          -0.39091360268214    8.81113038239992    1.33580980661378
C          -1.20768868484440    8.35021434204939    0.34037365601991
F           1.76898645335121    8.98984764451662    2.26108545515384
C           1.24705963752681    6.56501624479220   -1.84643695322621
C           0.41931450976523    6.12024285789038   -2.83999950666264
C           0.68581685411364    5.32500287719441   -4.03812032101464
C           1.81945320746096    4.56893249942254   -4.23605122054169
C           1.95701080148777    3.59628030787987   -5.23672611660368
N           2.12913286359111    2.76088366301865   -6.00912706831003
C           2.95858926768771    4.60497230406853   -3.41124042508705
N           3.93821642013875    4.59621770030931   -2.81025649576565
H           9.09531757918332    0.68991995391721   -4.46354744734716
H          11.20483107794509    1.76891364957408   -8.01526451312856
H          12.38448758833731   -0.41497989952093   -8.00283245696740
H           9.52169207982852   -1.46046067010503   -3.38042058053831
H          12.78470423331737   -2.62348947329339   -6.97117763853169
H          12.58146188237897   -6.95926513506183   -3.88390027861808
H           9.32887335469016   -5.75668151914667   -2.73411546195254
H          10.34898384915944  -10.26393232377749   -0.61975707037625
H           5.05659349650328   -7.30899076641055    0.88283642682602
H           5.30988682962198   -9.52968638459315    2.23343539225381
H           6.23612376829531   -5.15554219303981   -0.66694312533941
H           7.42945636365837   -5.67164380911399   -3.42938319601952
H           7.27110621531208   -4.11223936690718   -5.05795116553084
H           7.65035844215666   -3.15417227477840   -7.02399484272879
H           6.28702371285652   -2.83119020959142   -9.10635466253893
H           5.45045264141306   -1.48281155041713   -8.29337940051485
H           5.46717049585412   -4.23503151709299   -7.32099396620119
H           4.18390128994510   -3.39374886092780   -7.89837088311010
H           8.94067451939552   -0.85352341935202   -7.50256455050067
H           7.82210081020710   -0.80757327757506   -8.88010923504443
H           9.60567977115513   -3.03418088935343   -8.28737973368814
H           9.69794149994462   -1.99934314839682   -9.55126570404054
H           6.74866854449205    0.81786513358550   -7.81449102561657
H           7.07290041099587    2.96987841151555   -6.55736761914633
H           5.55423070246676    3.48940837079853   -4.58620891883195
H           5.62536484009012    1.63320342773948   -2.99655713399504
H           5.86220326088980   -0.66361233695437   -1.73823959372369
H           6.17943634983664   -2.99268936974911   -1.06392719707033
H           4.07871553528011    2.52603483922129   -6.92292278785489
H           6.28705347263894    3.78376753752249   -8.63901183492561
H           2.60921031063766    3.80762631775143   -7.96852060113688
H           3.74483731556329    5.01751693330217  -12.79155754658383
H          -2.19595309299623    5.27924233578608  -11.04297285093694
H          -1.93215884202058    5.70636510213932  -13.60092178061594
H          -1.30453371098772    4.74580390947287   -8.67419147753388
H           1.23230046534285    5.07513806563207   -6.99786576485231
H          -1.79114910236097    5.05608986099534   -6.43641429242216
H          -2.58346938493915    7.34059844326461   -1.76166778389197
H           2.59125647072892    7.59829650481649    0.24066742731738
H          -0.77086035909969    9.38710490332392    2.16465849698268
H          -2.26694349635197    8.55795755840368    0.36578868753913
H           2.30800862927616    6.37020138419702   -1.85586134337080
