98
 SCF done       -199.787232743146          0.000530057737
C          12.79821324844005    7.43044134889723  -13.55010572989009
C          12.52729756335498    8.21250925179221  -14.63906957533717
F          13.51517154943396    8.92631694960955  -15.20208544831068
C          11.24546118222728    8.30175260223293  -15.20108868044694
C          10.22671126453426    7.58169533533897  -14.64298226677541
C          10.45037079288056    6.75767668773297  -13.51991895462018
C          11.76111300385296    6.68192665482916  -12.96130057926597
C          12.00854919931595    5.86954876975178  -11.82993001114053
C          10.97959816759152    5.15583600690587  -11.27781064670228
C           9.67522233107186    5.22038643044466  -11.85303322631618
C           9.40765093250482    6.00255228321766  -12.94190268254388
C           8.76767900263128    4.33459992238791  -11.11138965034191
O           7.58423109001755    4.15576777632305  -11.26734476359203
C           9.64944237599454    3.60867824931538  -10.13514973715556
C          10.93224815651333    4.28421586023595  -10.10633017906017
C          11.81689185721041    4.29560123780615   -9.06557767574842
C          11.57051441905348    3.67996375117858   -7.81756479139866
N          11.37426240101375    3.32467349032031   -6.74374038128542
C          13.01294596872246    5.04536644151606   -9.06944356163086
N          13.99501608914564    5.63683368369866   -9.03721211764768
C           9.20444712465669    2.44017700169565   -9.60747674412008
C           9.97430832001154    1.42823870368078   -8.97361701900012
N          11.29523719973093    1.48466195795559   -8.90593777192725
C          11.68150182814152    0.42468990095778   -8.16947251714044
C          10.51802928457668   -0.35170719131481   -7.71704414037035
C          10.94512427164867   -1.49993596244533   -6.89132339248857
O          10.26209207991291   -2.34785387205277   -6.37099283025860
C          12.41581443675754   -1.34686605777527   -6.87872231914097
C          12.81840855281854   -0.16451580711034   -7.68134987670729
N          14.16748791619867   -0.03462389736945   -7.69817185193566
C          14.61591980331382   -1.02856108194415   -6.97522342415053
C          13.57446231308992   -1.89248313496795   -6.43835985167521
C           9.41795053591989    0.24332400369337   -8.27099045593932
C           8.05909753247509   -0.19087170903302   -8.18007927164368
C           7.14357224985408   -0.09697914442815   -9.16914539323797
C           5.81879228284738   -0.59153272576663   -9.03249448896728
N           5.29172156298502   -1.06198629014152   -7.94074035720415
C           4.03954707748131   -1.45993578477675   -8.14123811301100
C           3.54280663619372   -1.30470785130524   -9.46300533612904
S           4.74635176725139   -0.60410504361271  -10.46085749774751
N           2.30496369396417   -1.71857857683227   -9.67607143918843
C           1.77851850975852   -2.19332921729150   -8.57739135303072
S           2.83431194843661   -2.15460630762529   -7.14551994972452
C           0.48015141233504   -2.73550282637062   -8.45097711603357
N           0.04187063809727   -3.15002864584134   -7.27252676425318
C          -1.20052416497746   -3.62294799295028   -7.48983347978511
C          -1.56694084710991   -3.52745961446491   -8.91238182948044
C          -2.92832819828514   -4.05096794168749   -9.12803354598523
O          -3.53474061349203   -4.17622427320666  -10.17108371866582
C          -3.35675133076450   -4.40693537886987   -7.76588010205562
C          -2.26592234887180   -4.14560935341311   -6.79800948597757
N          -2.65616751166328   -4.46668037782382   -5.54173958368359
C          -3.89089453214549   -4.88838760297380   -5.66279394293871
C          -4.39383768297511   -4.87073522908311   -7.02439628078446
C          -0.49976854919216   -2.93613675574400   -9.54435694074739
C          -0.31585329587410   -2.55619054995131  -10.90175246447684
C          -1.24946522604627   -2.81638961937132  -11.84945461398196
C          -1.12185337927756   -2.42958870456730  -13.20654059497066
C          -2.11721739225631   -2.49369881626959  -14.13068616288561
C          -1.81385330790516   -2.47250844557968  -15.58870620946203
O          -0.78546780832766   -2.10911210940354  -16.11072925546320
C          -3.00729976036666   -3.05466640067978  -16.23202689704711
C          -3.19688539519765   -3.38630784021840  -17.54296502380487
C          -4.41797843979760   -3.97787884594020  -17.93501771537322
C          -5.42392024952933   -4.21917176362599  -16.95379818577138
C          -6.63442041355542   -4.82011942305187  -17.35063729879521
C          -6.81850339595195   -5.15624874528767  -18.66290591438022
C          -5.84263027432957   -4.92571597572452  -19.64248477048309
C          -4.66185257511419   -4.34333114847259  -19.27504209780860
F          -7.97348565196218   -5.73113517095418  -19.04367288131818
C          -5.20457562505888   -3.85711168297215  -15.60420430450506
C          -4.01625460897483   -3.27839028932446  -15.24929093769627
C          -3.52895868531401   -2.78340544055751  -13.96439181404082
C          -4.30375578280744   -2.45227439537746  -12.88655184716671
C          -3.84743053763831   -1.69232018415189  -11.78619710512220
N          -3.55144069298541   -1.00856146019781  -10.91368950187182
C          -5.68707381097674   -2.71977148073555  -12.80951653430068
N          -6.81197450917585   -2.92086239049473  -12.70643799310764
H          13.79613572188084    7.38925539738773  -13.14253816178808
H          11.09233457770667    8.93548963283477  -16.06007782605413
H           9.23136202834303    7.63411741521256  -15.05749085976538
H          13.01010111527165    5.82356810397558  -11.43284739112222
H           8.41154511313642    6.04203846129615  -13.35662671734716
H           8.14772627064609    2.24548423643423   -9.74353180450094
H          15.67359726735207   -1.15404380644743   -6.82058152826594
H          13.73842912591379   -2.75870361802798   -5.82880574077302
H           7.78256194741258   -0.70638764655278   -7.26953664652819
H           7.39054329824857    0.30521338702723  -10.14139122088258
H          -4.44147772500459   -5.21159584881419   -4.79640413109827
H          -5.37665610337147   -5.16950823377666   -7.33068232547794
H           0.58753333869129   -2.01345695691334  -11.14064300345257
H          -2.13603188214575   -3.36769000202270  -11.56731127768534
H          -0.14487941613971   -2.12518655197654  -13.56572599300312
H          -2.42208784061636   -3.20267911802106  -18.27227479512906
H          -7.40904724028979   -5.00993164153993  -16.62423298247907
H          -6.04431087214750   -5.21282347441761  -20.66226221867118
H          -3.89463500851013   -4.15578649166467  -20.01113074964924
H          -5.97792671403421   -4.05823100669544  -14.87985564411514
