99
 SCF done       -203.050451650135          0.000475987392
C           9.26525252039393    1.69316749523054    5.90233808060918
C           8.95467300106483    1.21684170106793    7.14631400323791
F           9.71204293752507    1.57199287710013    8.19732991832411
C           7.86585651674056    0.36314375681603    7.37628706110959
C           7.08269160852578   -0.00990666926880    6.32008755678161
C           7.35737156123260    0.45349539405463    5.01640201041141
C           8.46802641256277    1.32283006763699    4.80221541763974
C           8.75246503894462    1.81081061905061    3.50530252227363
C           7.94987391069002    1.44459417979403    2.45818800598381
C           6.85169143778233    0.55825662516693    2.67761652127677
C           6.55369760607255    0.07330258189376    3.92098375883063
C           6.17535403436079    0.30091206405336    1.40246795799521
O           5.16776304116524   -0.33514661060803    1.19327645908075
C           7.01713100063115    0.97195336635194    0.36578724737215
C           7.96712819805984    1.83342436389598    1.05060988992440
C           8.59002134287869    2.93052072782438    0.52875261156157
C           9.45463913310510    3.76465401368849    1.27095819315758
N          10.16355635641484    4.46643256671686    1.83693065881483
C           8.35169825872877    3.43235128225028   -0.76923959012097
N           8.13042541422273    3.93874295396237   -1.77475652386269
C           6.85891481229327    0.62942745880787   -0.93136837257689
C           7.70335813334603    0.94582505797050   -2.03693271642980
N           9.01041281059611    1.09622390944308   -1.94026929682491
C           9.44697024515273    1.32499230693773   -3.19985237852738
C           8.33147920942598    1.30829987988671   -4.16312560862875
C           8.82233372842777    1.56839170757114   -5.52889117158667
O           8.19608188143268    1.59094873988950   -6.56314664865348
C          10.26860115075567    1.77502823411084   -5.31258876627007
C          10.60386805559090    1.60239233738997   -3.87667702072465
N          11.93151995518227    1.79161252321281   -3.67115822901439
C          12.42376420881017    2.07371328597182   -4.84913528394764
C          11.43864046346326    2.08569246337058   -5.91997243114603
C           7.20265438756747    1.07193654083615   -3.42741865677892
C           5.82810927977248    0.96734989278699   -3.77980890069480
C           5.35269862852065    0.98620993437019   -5.04286855562473
C           3.96093215354460    0.76976842478585   -5.28613240572270
C           3.23756819375507    0.57127114232941   -6.45378814619291
C           3.72412828712570    0.52160668114266   -7.84308129465778
O           3.25515998526650   -0.16467089085230   -8.70853274143107
O           4.78223366606790    1.31850412745164   -8.01801464302004
C           1.92409899371008    0.27560926378609   -5.98685399407873
N           1.89044602978049    0.31678608004945   -4.67395572632360
O           3.12558580956786    0.62190474857819   -4.24056704048678
C           0.78501428241260   -0.11495564878257   -6.77910768214952
N           0.49564792191474    0.42031896907711   -7.93352371671895
C          -0.53147920195304   -0.31717108965132   -8.43146442822350
C          -0.88499114172670   -1.41637986020136   -7.51242518982002
C          -1.98847166507810   -2.22055782848977   -8.06909377435679
O          -2.51444482203864   -3.20459734119150   -7.60247946915654
C          -2.27934655913406   -1.52548650701675   -9.33912840766933
C          -1.36000692005195   -0.37145149711613   -9.51626997892871
N          -1.63487378537693    0.27861974265787  -10.67720744910435
C          -2.63215793958616   -0.37422284602611  -11.20950466869622
C          -3.08989358339722   -1.51135169253621  -10.42312191031348
C          -0.07702888087657   -1.26903388400759   -6.41825728232049
C           0.03735941754092   -1.99336480806313   -5.19682497400872
C          -0.41692943583605   -3.26053301835465   -5.04377714963621
C          -0.34579883676898   -4.04183040134741   -3.86052763629383
C           0.40720239572771   -3.96387201277614   -2.72660113844920
C          -0.05867312093474   -4.79166100632566   -1.56737509346100
O          -0.89675956132557   -5.66175371961458   -1.60413983411779
C           0.68516599511271   -4.29822697759059   -0.39905536361967
C           0.56015007717486   -4.66447570099683    0.91019126108080
C           1.38682421337256   -4.05089335190763    1.87684702500720
C           2.31600648572110   -3.05344298056355    1.46176143973164
C           3.14132110517652   -2.44244728078615    2.42578745449233
C           3.03633961645909   -2.82645166799396    3.73241787484397
C           2.13067186228982   -3.80410443587017    4.16399494941251
C           1.31832332407942   -4.40250950209850    3.24074117632836
F           3.83632481867999   -2.24832473498835    4.65602714787562
C           2.42141699363850   -2.69153635127980    0.09807179793604
C           1.62611485128730   -3.31718022096348   -0.82521383494850
C           1.56042001398747   -3.20685590174749   -2.28337925989538
C           2.55991322445691   -2.66670368258574   -3.05247791761472
C           2.63834745519794   -2.76858696099150   -4.45449213014773
N           2.77258035371178   -2.83225843156556   -5.59296518071659
C           3.68816433963018   -1.99825943126049   -2.53955262309501
N           4.63198189435753   -1.42977694498948   -2.21386601555417
H          10.10914989507430    2.35089952314248    5.76470914887946
H           7.67125077800711    0.02098310203589    8.38030631099508
H           6.23804418076085   -0.66586248152888    6.46710038838631
H           9.60327951720849    2.45955463024419    3.37050551949653
H           5.71598820606313   -0.59002128425880    4.07354382064165
H           6.00739263299797   -0.01013363792688   -1.15332909018028
H          13.47592321027163    2.26798521325954   -4.96626849178446
H          11.64390235194726    2.29714069395877   -6.95058651143626
H           5.12920579148718    0.83192980182128   -2.96668665628352
H           5.99052139790671    1.12572515039179   -5.90338331392497
H           5.11155313971281    1.25695430328044   -8.92875413463641
H          -3.04699547818667   -0.06098251526995  -12.15210292049247
H          -3.89612478942254   -2.16628216104991  -10.68819066725728
H           0.49713326408860   -1.45428117105879   -4.37981928285402
H          -0.93891331970757   -3.71951160275357   -5.87418368383157
H          -1.07347053466335   -4.85059682340836   -3.81695642556874
H          -0.15618704557843   -5.41782955992195    1.20167476846588
H           3.84907947719662   -1.68745953949659    2.12208254732625
H           2.09236536616537   -4.06458977978196    5.20992621240346
H           0.61159298940552   -5.15904051086466    3.54666415389712
H           3.12906438142697   -1.92277954960137   -0.16829144144611
