160
 SCF done       -257.079079419110          0.000758436893
C          -2.81350951057212    7.33044136443754   -8.81208760251679
C          -3.87123050005849    7.52162713037893   -9.65652465323252
F          -4.06369565679160    8.73271899849131  -10.21450086001706
C          -4.77567800903974    6.49931082966337   -9.97190855353227
C          -4.59583181936252    5.26347279783830   -9.41508489412027
C          -3.52163623893420    5.01020095293959   -8.53821403667581
C          -2.61353272030198    6.06408775034476   -8.22911253623186
C          -1.53100216943591    5.83561385481315   -7.34714431163977
C          -1.36266422151917    4.59278510587498   -6.80175981045572
C          -2.26535533900150    3.53867562759429   -7.12483341874391
C          -3.32300937045942    3.73371976641028   -7.96404531919938
C          -1.83356352412703    2.30168497097213   -6.44013876393783
O          -2.38542352271517    1.22254073025984   -6.43827279172586
C          -0.54020720498224    2.64463819939570   -5.80311219851917
C          -0.37236998256220    4.07607435601560   -5.86108435922375
C           0.37314592004021    4.83540465554247   -4.99349063875922
C           1.08171127917928    4.28460365476861   -3.90674227095861
N           1.61691305436145    3.86834753353468   -2.97971029135479
C           0.42567822287201    6.24095711371052   -5.02937052158208
N           0.51011108734829    7.38662642463329   -5.02655463140636
C           0.28985874618721    1.65192872103918   -5.36354344910150
C           1.68329460396834    1.68694251517757   -5.17557476764943
S           2.70111701724953    2.85876134333366   -5.98575337838194
C           4.11497795483274    2.13686614437426   -5.34174075717164
C           3.84058036119791    1.08383121103243   -4.53328830129360
C           2.45456968122078    0.80192164979815   -4.41128411912473
C           1.90093795708795   -0.23853002505272   -3.59412083433490
C           2.46628817837994   -0.71172658938758   -2.45402492863343
C           1.91961566983975   -1.94510411454572   -1.78976671605561
C           2.78374929895557   -3.14864974710734   -2.08352160697322
C           3.18261082132282   -4.00453876429274   -1.06552061752961
C           3.96518402351375   -5.11125116738416   -1.33962121974515
C           4.37375126832809   -5.39040875017489   -2.63686155812707
C           5.18475267447287   -6.61759386667958   -2.93894550423129
C           4.26594133691830   -7.81295256642537   -3.19959054484950
C           3.97161852945498   -4.53406318005364   -3.65375393236365
C           3.18837428833202   -3.42829550710833   -3.38245139060166
C           3.58979330244152   -0.03729795307378   -1.86340359488055
C           4.54438492957999   -0.59108549709804   -1.08971520738374
C           5.74209283960921    0.08775876043567   -0.65564774440906
C           6.03548834850385    1.37832288553265   -1.03754883206903
C           7.27571394591137    1.95951511515963   -0.70789406414756
C           7.83157655138799    3.18966380781120   -1.03685423723957
C           7.25876484664716    4.34456592927950   -1.79339120802135
C           6.44644566218596    3.96711536041991   -3.05603415611160
N           7.02950814383219    2.95059943405436   -3.91000689547031
C           6.37327839410962    5.20897568855633   -0.86604610080339
N           5.22642093311375    4.45409535997577   -0.40898372527278
C           9.14845205700539    3.21801204662239   -0.43955706828830
C          10.10220349804775    4.16692261882114   -0.44067893167657
C          11.39356938328868    3.98138588170246    0.27037175543315
C          11.55674262480958    2.64686689149917    0.93446476643726
C          10.58981883978547    1.71160643227001    0.93282837852950
C           9.36647502218104    1.94530156873544    0.26144447316213
C           8.22725135815148    1.18744343427143    0.08507686131011
C           7.88169274013618   -0.11892254155010    0.50480220622983
C           6.68887882327816   -0.64760066496106    0.13411178381919
C          11.59442518828513    5.03481671857962    1.33153494099331
C          10.58967696470450    5.65791753534132    1.94946652995270
C          10.75030234195987    6.60591493700675    3.01211394539268
S          12.31903936004419    7.10726258197354    3.58018163394187
C          11.60439089496793    8.05092502684062    4.83026265582493
C          10.25299467668974    7.96899786173445    4.83154057843694
C           9.74527764883035    7.14316384108854    3.79129721635924
C           8.32348375731955    6.89469148119131    3.59732269478194
C           7.48362879769682    6.41388090458848    4.53784303685799
C           5.99121638686556    6.42365478327811    4.30989103380609
C           5.37133778214560    7.45605766212248    5.21715681418198
C           5.62936355935198    8.80523281345009    5.00858082587937
C           5.09355992485689    9.76266713334960    5.84765582181303
C           4.29234984769365    9.39851177282966    6.92309506198866
C           3.67314608796567   10.44166794791187    7.80772350530959
C           2.30078317774876   10.85132100392395    7.26918381939932
C           4.03881041994223    8.04966357035909    7.13118756860552
C           4.57375919222313    7.08929889228425    6.29146519576502
C           7.90880076353812    5.86588539927580    5.79940263848419
C           9.13967905252709    5.34359747339907    6.01671930079963
C           9.59879963505472    4.79512647038846    7.23109267978883
C          10.85082406492863    4.28252287728800    7.42651377278832
C          11.38639708106792    4.12967077621373    8.80292689968526
O          10.75201176988975    4.12407042717564    9.83421288546703
C          12.85278061347891    4.05560491647918    8.64156214988341
C          13.82224462587774    4.02779205388071    9.60113142177582
C          15.18043196260288    4.00785994547009    9.20997272185823
C          15.50626852833690    4.02387451070206    7.82269411485967
C          16.86148824767748    4.01575241606699    7.43942019455515
C          17.83146436867571    3.98914970104650    8.40243952114761
C          17.53163047159988    3.97064859446037    9.77095752918330
C          16.22084389754633    3.97994630005222   10.16050301853938
F          19.12721402323450    3.98074619547279    8.03721219784791
C          14.47956618777690    4.04330777718564    6.84966210857805
C          13.17157734813603    4.05097839361994    7.25264581621586
C          11.92494812522853    4.03797710227254    6.49009326321378
C          11.82099069884522    3.67648666931483    5.16888837235970
C          10.61977095185932    3.35914823961592    4.49989401263303
N           9.69699422639585    3.02501287977980    3.90319142632748
C          12.92375303091567    3.46928135105494    4.31830501502315
N          13.76834665846863    3.31546630070090    3.55436790878926
H          -2.13852242574006    8.14201383537046   -8.58930754993649
H          -5.59167275594587    6.70859984568512  -10.64531945528632
H          -5.27939727782783    4.45934419798151   -9.64306959613859
H          -0.85309779393585    6.64714614617382   -7.13375557458676
H          -4.00099341928478    2.92448922632151   -8.19083126459723
H          -0.18576706071735    0.68311538705531   -5.23922003715752
H           5.08138729743122    2.53888553910304   -5.57746876776203
H           4.60818768243240    0.48474761509161   -4.07885116182724
H           0.96799052560127   -0.67045904232851   -3.93407566114804
H           0.90889056308652   -2.13994993362719   -2.15915384553934
H           1.86481445483836   -1.79286675521826   -0.71004939295315
H           2.87674712819629   -3.80532672484485   -0.04730796526334
H           4.26582857259665   -5.76579783070789   -0.53349209955151
H           5.84100407058967   -6.84562214739663   -2.09635452327823
H           5.80701738759645   -6.44319265216975   -3.81912727565549
H           3.64664102010095   -8.01129370557361   -2.32757155942251
H           4.85089628530209   -8.70286286603021   -3.42031010412474
H           3.61098976312548   -7.60886887785608   -4.04376807601583
H           4.27802277331113   -4.73474022969564   -4.67073850819693
H           2.88911079303101   -2.77144293573686   -4.18677442562814
H           3.65225962854075    1.01437902531753   -2.10379880346010
H           4.48501942144105   -1.64213473070775   -0.83898791963375
H           5.32521128048866    1.95816538833107   -1.60057335939583
H           8.09811079546962    4.97519058866356   -2.11240907306420
H           6.32599435693296    4.87280948145402   -3.65843188603617
H           5.45012332403991    3.63999548224228   -2.75800336801985
H           7.96635680063879    3.22614742542301   -4.18987291145412
H           7.11257986175345    2.07703952461345   -3.39886988522212
H           6.00657607641180    6.06536018975654   -1.43900794785868
H           7.00557012495951    5.59179941069932   -0.04364515093505
H           5.51006924520723    3.73514725191214    0.24724420632488
H           4.54841535232991    5.05407987568691    0.04359803972085
H           9.96976021951476    5.11730389740270   -0.94201443249207
H          12.20456429249726    4.10482674247842   -0.46439441845153
H          12.49066875749856    2.49155874406365    1.45194514436406
H          10.73752028883846    0.76932423812722    1.43970846332362
H           8.57930725189802   -0.68317402038956    1.10608800340574
H           6.42265190183713   -1.65223561152716    0.43153485735940
H          12.61754943789117    5.21715801590244    1.63068376304540
H           9.56446773273726    5.43668320766944    1.68247276630022
H          12.23771793026503    8.61325747124487    5.48715119434767
H           9.61751468422828    8.48092292397415    5.53192467495664
H           7.92554933123237    7.16364389446812    2.62579956737146
H           5.57468494508975    5.43820515701223    4.52695954125675
H           5.77710873529149    6.66929379007669    3.26792931884510
H           6.25660908978367    9.10414791734812    4.18030964221841
H           5.30172688532879   10.80816102560362    5.66907215734369
H           4.31913157730876   11.32088864511571    7.85252959464711
H           3.55934612920175   10.04902922748885    8.82024285353447
H           2.39446822304647   11.25742281668919    6.26445420287205
H           1.85065467744573   11.60670596486302    7.90912503747190
H           1.63796748572661    9.98984280163808    7.22847084243414
H           3.41732459216598    7.74644735534972    7.96189745877623
H           4.36033355764048    6.04428950338167    6.47027130412267
H           7.15564054235705    5.79300025361549    6.57430044545037
H           9.84477520880190    5.36280561703600    5.20311478668541
H           8.97087256350664    4.87712340667844    8.11080786310832
H          13.55775858593880    4.02382958871745   10.64796764080960
H          17.12936201400108    4.02647422146885    6.39441950301406
H          18.33909244657230    3.94989200089696   10.48552810737351
H          15.96476862944217    3.96665549330963   11.20926929603352
H          14.75571164156261    4.06318178541561    5.80732151851888
