113
 SCF done       -211.196513519151          0.000570280978
C          12.71344260289107   -0.14650366143025  -13.98462157406702
C          12.75039931775436   -0.86919936162194  -15.14500582068333
F          13.82718021771974   -0.78376286836802  -15.94355679327613
C          11.69896065511686   -1.70756823665828  -15.54251193736893
C          10.59524948916297   -1.80918646052788  -14.74287448687541
C          10.50462845321693   -1.08736996223650  -13.53414106867559
C          11.58400719260114   -0.23792547952360  -13.14877766081802
C          11.51327938640509    0.50275563800754  -11.94578822117955
C          10.40283498738750    0.39150520888447  -11.15467295735866
C           9.33463834416690   -0.47477117304166  -11.53372487788849
C           9.37351011483072   -1.19318273892742  -12.69618358876136
C           8.29125970848597   -0.44930189166039  -10.49637240990165
O           7.20902953536582   -0.98829856198893  -10.50702068543820
C           8.88281198101844    0.35051555998260   -9.37598172063631
C          10.04281439659484    1.04871756871174   -9.90147125412869
C          10.53882564745808    2.23892597403405   -9.45333443097742
C           9.93077539887529    3.00211910156242   -8.42897192742610
N           9.39579001313186    3.73743110085806   -7.72783208449918
C          11.61665885673855    2.91087047126062  -10.06802133016464
N          12.49388709497820    3.47982602780794  -10.53989537447505
C           8.42575897157781    0.17820863833416   -8.10796377158740
C           9.09614161683059    0.55731857829161   -6.91268178028170
N          10.27598511214992    1.16337922174351   -6.89941220200340
C          10.52900324892634    1.46636022556089   -5.61228530715950
C           9.42225691199943    1.03653570859539   -4.74323874287535
C           9.69075154299566    1.39814742951598   -3.33932872895555
O           9.00348097639156    1.19978776038779   -2.36517944718362
C          11.01102616125089    2.05763001149298   -3.43108316843010
C          11.48571522182354    2.06805676226697   -4.83563892144679
N          12.70969970399733    2.64386032284294   -4.92327555607597
C          13.01615278397750    2.98358375504822   -3.69682067033640
C          12.00320836326426    2.63751685658095   -2.71279404732740
C           8.52900288054361    0.39654889049617   -5.55325346280936
C           7.30394796734587   -0.26613683829348   -5.21307354886330
C           6.92867186294202   -1.44978304196189   -5.72706072899168
C           5.68137749390203   -2.10257084571028   -5.42757557718640
S           5.66745156690139   -3.78817236319000   -5.02386047787834
C           4.40671479545576   -1.56289778108733   -5.46161036920331
C           4.14064844062062   -0.20329205926650   -6.02367192873463
C           3.98775910300226   -0.28733164943492   -7.55657202888844
N           5.22233892005086   -0.78540110859417   -8.14397640947667
C           3.41207810997415   -2.49312533626892   -5.09000121074473
C           1.94067285414745   -2.25665130387091   -5.22478074779267
C           1.31858348201044   -3.20649181847430   -6.26312639605548
N           1.97537650793219   -3.04798961888241   -7.54716389356262
C           3.95018360936404   -3.73283030489157   -4.76817213138641
C           3.27692099531539   -4.91625905858266   -4.35367631372278
N           3.53924856467147   -6.09805967060207   -4.89168183211294
C           2.67297234537748   -6.96071647905984   -4.32672448113878
C           1.82741441237871   -6.29084088685038   -3.32525467117873
C           0.87473357461896   -7.24575031563740   -2.73214908525778
O           0.02153737234038   -7.03324195312013   -1.89408159748802
C           1.20225363578709   -8.49881599369529   -3.42463825464366
C           2.30258920105579   -8.28384955863488   -4.38871071003775
N           2.61274815731403   -9.43696995221156   -5.02369775456428
C           1.79509162528989  -10.33512358224340   -4.52379757751364
C           0.89049364869310   -9.81880713361664   -3.52147758092904
C           2.23247773002181   -4.97988925675191   -3.30363427578152
C           1.89530074859351   -3.92294702516631   -2.41219426097122
C           0.85657089235041   -4.02193053405226   -1.54956084242944
C           0.47408058563449   -3.00749661607801   -0.63606615292635
C          -0.72372574922997   -2.97266621588921    0.00589162958565
C          -0.92913187555596   -2.16723116011088    1.24111670510869
O          -0.23467341898031   -1.26277723881326    1.64208909091595
C          -2.11642792345616   -2.76312629060753    1.88488796818566
C          -2.65317537418771   -2.49063389272276    3.11026247401219
C          -3.78393742227326   -3.21729328871769    3.54495856962595
C          -4.33753050786401   -4.22197410298973    2.69796930250293
C          -5.45800098000534   -4.94962420323377    3.14379302803411
C          -5.99031265282413   -4.67622139564082    4.37308974158655
C          -5.46207758999150   -3.69124970961441    5.21911356500003
C          -4.37408422436385   -2.97596417595395    4.80271243442426
F          -7.06033670225456   -5.36989790518730    4.80044495314117
C          -3.76676730258441   -4.47804187188781    1.42934986722840
C          -2.67618080315024   -3.75591241277899    1.02695637444494
C          -1.90589630801251   -3.78184448808406   -0.21211093851495
C          -2.32424752560566   -4.28464435379417   -1.41540880990542
C          -1.68163834795526   -4.01037909330217   -2.64220957139474
N          -1.23433440635854   -3.74471868048996   -3.66592349693275
C          -3.51620783735773   -5.02098758619186   -1.58046991176585
N          -4.47601894778858   -5.62410377898263   -1.75754082360105
H          13.53959049216123    0.49127209516119  -13.71190420506478
H          11.78471806398950   -2.25304029197597  -16.46883060592227
H           9.77333371117365   -2.44840085936700  -15.02798516385702
H          12.34496287045006    1.13244878785266  -11.67235689383293
H           8.55215598559538   -1.83810464248587  -12.97073848583167
H           7.47669134153022   -0.34006781748409   -7.99862766243020
H          13.94872982822922    3.47807400076847   -3.48693176809884
H          12.06937130089385    2.82548725679437   -1.65955230790005
H           6.71428865462371    0.20550193094931   -4.43806162437685
H           7.61394178961216   -2.00439944359287   -6.35565185541506
H           4.97395987777906    0.46109608790091   -5.80856364679033
H           3.23527851341681    0.22446043873747   -5.59534344840725
H           3.81289553690598    0.72123508274091   -7.93746131721754
H           3.11487660845862   -0.91263429126763   -7.79670609857440
H           5.27754622182882   -1.79368872112243   -8.04941930926331
H           5.27719635903587   -0.57518821756811   -9.13401696983416
H           1.76627454113638   -1.23305759819415   -5.55007139630469
H           1.41265693808277   -2.41716874592681   -4.28460810734847
H           0.26427425352416   -2.94894264907634   -6.37713390423736
H           1.37501056048481   -4.23629860355815   -5.87454808029600
H           2.89574523535379   -3.47604248851166   -7.52571919209520
H           1.44106335219756   -3.49479738916465   -8.28272417049504
H           1.83722686471661  -11.35495003894526   -4.86478332930216
H           0.15075911305899  -10.38773280994581   -2.99393787828531
H           2.50000214877526   -3.02582260457003   -2.44691338092056
H           0.27870322279388   -4.93716175543345   -1.54519450919043
H           1.19745037286906   -2.24472431185721   -0.36999499461593
H          -2.21864855048133   -1.73080530725232    3.74251075008802
H          -5.89243057655642   -5.71346702039152    2.51802251241033
H          -5.92418421022674   -3.52026655816111    6.17842568076788
H          -3.94881200640440   -2.21271239532994    5.43688118576944
H          -4.19717760831064   -5.24985760484906    0.81087487572883
