110
 SCF done       -204.453835762340          0.000376862597
C          15.72155912021147   -5.45940443537908    9.41050199284308
C          15.89423424899889   -5.24153605356288   10.74912430177163
F          17.09031863756915   -5.49607840939814   11.31275622378282
C          14.86765985079021   -4.75733033265636   11.57032078321347
C          13.64659426988053   -4.49233057533257   11.01477611022553
C          13.41351258471993   -4.69780898589511    9.63987101702970
C          14.47054076708572   -5.19208511653792    8.82198677093456
C          14.25937431344098   -5.41053676852046    7.43963023181567
C          13.03479823197169   -5.13444956722111    6.89738659660571
C          11.98539290240718   -4.62815442427175    7.71718909810561
C          12.15742405982007   -4.41879749756023    9.05423966697304
C          10.79430532981161   -4.37515793192073    6.88078252223612
O           9.70467755528410   -3.98546994774561    7.23746364612528
C          11.23583437566161   -4.64115141158809    5.48764040147106
C          12.52513179620643   -5.27679425856879    5.53454434538907
C          13.07598710187584   -6.07538388146058    4.56147325952274
C          12.39763655309285   -6.41778517479629    3.37758990422950
N          11.85738100110443   -6.72345655659506    2.41115802699392
C          14.33618009642601   -6.69254325992429    4.66698548217162
N          15.37041177838419   -7.19194286976320    4.68497669498237
C          10.47621306853347   -4.16825905300218    4.44973900497475
C          10.86575657401408   -3.88419473090234    3.13558980581726
S           9.66337528150817   -3.41741313722306    1.93497998836105
C          10.82189932632019   -3.10054343029572    0.67567691217784
C          12.09379656523101   -3.34502067535874    1.18238328443158
C          12.10894044888760   -3.77483778962483    2.52757631424789
O          13.40182999215962   -3.91804491027086    2.89750515264661
C          14.09797108761714   -3.59802239182668    1.77608857361017
N          13.39870319306563   -3.25526415000842    0.75476213707581
C          10.46272411358487   -2.61864391014326   -0.61705748492631
C          11.46149615031222   -2.35417510283624   -1.53400258087482
C          11.13244408503666   -1.79867930631491   -2.78127134745022
C          11.93186665543058   -1.39127038143095   -3.84263700867933
C          13.41130685214809   -1.49116921043530   -3.98543886679646
C          14.13807942216542   -0.62758208750437   -2.93428810993807
N          15.45180525872998   -0.27728165984546   -3.43801726954422
C          13.87378364355546   -2.95960348115406   -3.92942142010284
N          15.27049643543944   -3.06821048104375   -4.32412955210674
C          11.04819676194060   -0.80031555484082   -4.81930458457687
C          11.30991682757492   -0.15983655381026   -5.97336952714064
C          10.22501227167095    0.46683750841533   -6.78180298145545
C           8.83974253131154    0.19740495322878   -6.27651840641086
C           8.59681238549346   -0.43832651347569   -5.11620891726249
C           9.66815408200458   -0.92081164732334   -4.32514882364563
C           9.73089373439396   -1.52057903953975   -3.08633255667915
C           8.72935279639237   -1.84853963205003   -2.13896267264088
C           9.08643354538967   -2.37740522306417   -0.94449713114526
C          10.34972881512754    0.05556147773769   -8.22185380805841
C          10.58079255957292    0.92294762637658   -9.21349329000303
C          10.71365762050089    0.55702946159944  -10.58785601642943
S          11.06610114821771    1.75226427681527  -11.80424935454613
C          11.15476084336773    0.60188412744232  -13.12309318848182
C          10.87935168452347   -0.65927276357526  -12.60861136621974
C          10.64108707909207   -0.67067478597747  -11.21162916764356
O          10.38237768016860   -1.95346304330245  -10.85330898537815
C          10.46581282288027   -2.63573462054268  -12.01491556506551
N          10.74186980981253   -1.94766012783896  -13.06749057291623
C          11.40841720950572    1.05181193486534  -14.43108081457709
C          11.73753726759921    0.32378781595076  -15.53578354485729
C          11.52102951324377    0.92410377360548  -16.88214198189879
O          11.30145692792258    2.08800575636799  -17.12830277685795
C          11.57538285882757   -0.21133552024714  -17.82167977157816
C          11.32920331764546   -0.22611734136612  -19.16425533534417
C          11.41290738909916   -1.44907755613658  -19.86664371137455
C          11.74780367703293   -2.63961007064454  -19.15762566987733
C          11.82240358114028   -3.85601361507306  -19.86362192367304
C          11.57543208979412   -3.86847462176707  -21.20824846012393
C          11.24604513261087   -2.70886312300266  -21.92311573069849
C          11.16846766147938   -1.51950525186392  -21.25349308531613
F          11.64678684698568   -5.02991044469992  -21.88387662204303
C          12.00535349605829   -2.59285262755485  -17.76721629758561
C          11.92603579878209   -1.39544654389013  -17.11010660976967
C          12.17341753049201   -1.04110427208260  -15.71449616721727
C          12.90837179788324   -1.78392121121409  -14.82833667304664
C          13.38848311621421   -1.28282438833143  -13.60359323554446
N          13.83153976967478   -0.89684192747981  -12.61680749981582
C          13.35134809498095   -3.09781506354916  -15.07853267234555
N          13.72469750329429   -4.17388842098928  -15.22162600324946
H          16.53432013183702   -5.83598754979260    8.80922005964377
H          15.06229900757380   -4.60433929475628   12.61998279113991
H          12.83978457473674   -4.11814477267917   11.62696037543419
H          15.07763939961135   -5.78038065913799    6.84194848534626
H          11.34681324493988   -4.04161565002261    9.65962051819666
H           9.46338628645316   -3.88224177004581    4.71404153519489
H          15.16782692381584   -3.64949927172928    1.81702546731951
H          12.48644950916671   -2.54918192973596   -1.26556531637955
H          13.70010432437748   -1.09056053861695   -4.96228558181286
H          14.16049871956106   -1.16888406053873   -1.97583897354144
H          13.57537130276849    0.30056700183675   -2.78204463182405
H          15.96054096134180   -1.13584584290897   -3.63421128812525
H          15.96817647420892    0.25347905447424   -2.74525695029174
H          13.19857551576157   -3.55979818943306   -4.56384909886956
H          13.78992081391826   -3.33545693134020   -2.90772843357472
H          15.37698780445115   -2.83194068972971   -5.30593144251422
H          15.59815988924253   -4.01955368957596   -4.19694595775101
H          12.31616622726003   -0.04032628116057   -6.35076125557940
H          10.39178428076591    1.55580728924555   -6.73639393625327
H           8.03615377719066    0.56965410977622   -6.89328908595915
H           7.58355630859657   -0.58444721634561   -4.77132222248332
H           7.69264626421711   -1.66091969283556   -2.37547198617686
H           8.34275074729422   -2.62411349320663   -0.20084193072400
H          10.23478683381911   -0.99925352126582   -8.42494980449077
H          10.69302734083955    1.97893556005464   -9.00631475865936
H          10.29913914397860   -3.69501549518917  -11.99540276530788
H          11.25472535389118    2.11215377253936  -14.60631873880199
H          11.07315900060521    0.68437192311039  -19.68512048156079
H          12.07669488904399   -4.76804702319426  -19.34660555859006
H          11.06144655265044   -2.77999346779110  -22.98326702754886
H          10.91669632233491   -0.61240740547156  -21.78207766050788
H          12.24943375570114   -3.50886812410160  -17.25298745113624
