116
 SCF done       -205.887877610681          0.000595272561
C           3.85280531555940   -5.32380955308330    1.88026036132906
C           2.99829825072710   -5.91467174471164    2.76887676914365
F           3.15658786818741   -5.69223370414978    4.08727442988452
C           1.95075335450542   -6.75121346935842    2.36175471951190
C           1.77342734283680   -6.98562185821504    1.02636371839450
C           2.62336300689019   -6.39979788954264    0.06643885232551
C           3.68546425820002   -5.55512403531177    0.50128309516508
C           4.55749229477894   -4.96335490807595   -0.44310758388555
C           4.36309541318865   -5.20010745258112   -1.77616754611760
C           3.28839754619390   -6.03079963315750   -2.20565914427241
C           2.44179094007383   -6.62643427697358   -1.31686146647873
C           3.27637217190796   -6.08410943463659   -3.68123306922181
O           2.53572623747777   -6.72140784858736   -4.39539924214857
C           4.33947523875257   -5.13663229044623   -4.11551444519830
C           5.10519104943685   -4.76123059207000   -2.95617952557048
C           6.39186119732617   -4.27978304353759   -2.95191517383720
C           7.17008743846126   -4.16993121059227   -4.11928516342081
N           7.82723287515732   -4.08556765016019   -5.05699856406219
C           7.07315253192531   -3.86466426659494   -1.79360427501601
N           7.64762704211378   -3.44855405252925   -0.88984609681801
C           4.35139659447157   -4.72546315932183   -5.41862946367552
C           4.94282866081167   -3.60030524039645   -6.02471255767188
S           5.09575624167878   -3.56372727505721   -7.76352576276434
C           5.81130178980083   -2.01323565029491   -7.71838338403319
C           5.90377059405201   -1.50774815718860   -6.46042463744699
C           5.40233115376797   -2.39506241871040   -5.48170275337852
O           5.36002113577189   -2.19135909183964   -4.15136117101057
C           5.46676834705806   -0.94349257447487   -3.60262556730893
C           4.96422134080949    0.18938166045195   -4.10015254365182
C           5.07245258283221    1.49213671530985   -3.47723285716459
C           4.22970712361572    2.49860247385912   -3.88084791236605
C           4.30058159966766    3.77457081031513   -3.28237556212278
C           3.58789982383828    4.94058841193621   -3.51895911599740
C           2.54404954893164    5.12272797601551   -4.56808877938736
C           1.11638613577819    5.21387292817818   -3.99101037666790
N           0.94497166780061    6.39750211264103   -3.16360627611200
C           2.83807041697408    6.33779740513473   -5.48724581595027
N           2.28509880061569    6.23465359730172   -6.81962890697287
C           4.09893709612657    5.93006618163055   -2.59605371517826
C           3.82137647404430    7.23750038310603   -2.43325900584280
C           4.47848094447787    8.05525942792513   -1.37723246567625
C           5.47968698333397    7.31715225352291   -0.54091139973137
C           5.79075476068272    6.02696493666347   -0.75614198170559
C           5.14188896433272    5.29346831310867   -1.77768041288995
C           5.27561272044379    3.99639014270563   -2.22334186693954
C           6.16684744131920    2.95820012950936   -1.86764831036259
C           6.06531939890252    1.74998960919233   -2.47503274927843
C           3.40975483781581    8.63974519441004   -0.48721127680797
C           3.46572403966611    9.87024597010007    0.02369423119238
C           2.46482514026769   10.46089815671094    0.86815792501146
S           2.82224845520581   11.90650958019294    1.75466314823386
C           1.24498238701753   11.95833495681337    2.42307753981159
C           0.46654241243807   10.93371362256055    1.99170312111389
C           1.15714885100926   10.07863872400255    1.09995095371916
O           0.63043264871110    8.94889263131739    0.52616337737026
C          -0.67963179809231    8.89378817176732    0.28133317703356
C          -1.31890945931019    7.76011540877752   -0.10124658325110
C          -0.80941650017794    6.44654368971309   -0.23186792790202
C           0.31285187118389    5.82301624149845    0.24273018833979
C           0.70891010987473    4.53000742195626   -0.38850993659304
O           0.06412537169719    3.89688916320494   -1.19781857029257
C           2.04146784750239    4.21147968884653    0.14893328159415
C           2.81549512451877    3.10900788572196   -0.07063277769516
C           4.03124823587206    2.97139453324951    0.63415546821778
C           4.45858702734762    4.02220185901132    1.49567665705762
C           5.68050282663997    3.88724638369356    2.18167351674446
C           6.40994832723849    2.73970175240437    2.03406784351134
C           5.98853713134520    1.67994991606280    1.22062623051227
C           4.81764008203409    1.80674883117909    0.52498277843520
F           7.57482988591397    2.60923328698345    2.69491119200865
C           3.64180233998412    5.15999135470473    1.69398191888180
C           2.43168813515722    5.23386030463243    1.06114313153728
C           1.31385253163264    6.16333240087985    1.21748112445404
C           1.17224728524115    7.04132311912162    2.26807126261485
C          -0.06084356741569    7.59394958176480    2.65034207781611
N          -1.05873443476703    8.05919815000612    2.97860962728183
C           2.22719708701200    7.45414014320323    3.10378626003569
N           3.05305427294330    7.88711878021753    3.77387858204516
H           4.65094142582063   -4.68817740982348    2.23093529507865
H           1.30857837715886   -7.19051576490965    3.10849285938912
H           0.97291226410897   -7.62602294854288    0.68777657489698
H           5.35351804915788   -4.32888130293715   -0.08629048394854
H           1.64037772864484   -7.26155287974155   -1.66347735392437
H           3.74501321908981   -5.33628967472542   -6.08180524599359
H           6.14033800819409   -1.55327689587558   -8.62904381648622
H           6.34663289862747   -0.55644195507614   -6.22857539848520
H           5.95474327204198   -1.00480899375877   -2.63950566303440
H           4.39901678451629    0.15153903677927   -5.02321316625616
H           3.49745796985994    2.30651434327665   -4.65288966785515
H           2.56286243275757    4.22502478314159   -5.19932041740633
H           0.89259529536063    4.28181461830343   -3.44904305680705
H           0.41187287552805    5.29204965671600   -4.82505237454821
H           1.43150244015849    6.26680888112598   -2.28258648579739
H          -0.03809436028929    6.52421480557979   -2.94978289107090
H           3.91994381932398    6.45880684977939   -5.58739659163766
H           2.42252392511787    7.23655565141005   -5.03106936425245
H           2.64483324429857    5.41502062560417   -7.29745829116932
H           1.27466714147382    6.15942230713180   -6.78243432273678
H           3.08316693585718    7.74431260530320   -3.03600239316908
H           4.99737882130111    8.89378556983165   -1.86597911728128
H           5.94746144354736    7.88910906412059    0.24547109539446
H           6.53718865917089    5.53088558152321   -0.15244788603790
H           6.93286977380381    3.14661641314697   -1.13026764083874
H           6.76104330905293    0.96398288996066   -2.22713036484726
H           2.58633079201723    7.98215066707495   -0.25852003104109
H           4.31967211468895   10.50315045216132   -0.18091825040436
H           0.98484221825793   12.73851750496898    3.10928086664632
H          -0.54119558154428   10.76376070555223    2.32489334213556
H          -1.22949943134969    9.82662531734246    0.33516127727710
H          -2.34738143788119    7.89116107708468   -0.40436549136842
H          -1.40492393439024    5.79932731246529   -0.87215571886066
H           2.49219191497614    2.33549561407274   -0.75094169884569
H           6.02822841752745    4.67607171394342    2.83050966906042
H           6.59869507825495    0.79316318240207    1.15492636610677
H           4.47274019010484    1.00757388630544   -0.11319874560411
H           3.98436568270247    5.93383681744619    2.36254174457607
