124
 SCF done       -209.300620191211          0.000658093160
C          17.27264382115614   -0.58111925196515  -10.34910539988267
C          17.46942754770760   -0.89493725468679  -11.66500444411421
F          18.51191710117160   -0.35977549300638  -12.32467119035231
C          16.62006852858680   -1.76234287657064  -12.36593729103157
C          15.55438878436510   -2.31597941669823  -11.71277817899585
C          15.30388538623709   -2.02734613156520  -10.35542354352208
C          16.17930187696636   -1.14194944546908   -9.66045923691568
C          15.94630983845963   -0.83307472412177   -8.30073612570087
C          14.87657678132043   -1.39696857033998   -7.65832359521835
C          14.01270325004398   -2.29363118552416   -8.35310172871267
C          14.20984962151655   -2.60002381686774   -9.66914552501957
C          12.97732544755643   -2.79253421723195   -7.42704754108809
O          12.01448784672513   -3.47297014780239   -7.68739326447709
C          13.39241811912509   -2.28874716215674   -6.08135683474422
C          14.37931539679589   -1.24173367086964   -6.29680775791327
C          14.63187191761980   -0.17691828521606   -5.47658931985461
C          13.89559062316336    0.11041932500630   -4.30981939521996
N          13.28760072814323    0.44067324553784   -3.39329735593543
C          15.57143759448418    0.83340407910650   -5.77583671408938
N          16.33181250066710    1.67108204830749   -5.96718793944946
C          12.99822416124692   -2.92050739681558   -4.96280644454119
C          13.54736053050546   -2.79552571042433   -3.59491268801020
S          14.14652792759130   -4.46982785468208   -3.11463430834386
C          12.92180106653355   -4.61471694492287   -1.77545026916245
N          11.85651038405082   -3.70630180785711   -2.12215632433553
C          12.43641485087032   -2.46705560794988   -2.60153646536421
N          12.88067529979820   -1.80011801970279   -1.38568982735723
C          11.79661268217814   -2.02032914891581   -0.43082664478678
C          11.04135196148016   -3.26762196816775   -0.99260759478315
C           9.66471542625496   -2.90132436679784   -1.49860109140279
C           9.35405996987669   -3.07963683441290   -2.81160862979925
C           8.13412050856301   -2.58686080048407   -3.32224293840765
C           7.69115099424399   -2.50899009425902   -4.63026606383428
C           8.51307540774629   -2.91265750286431   -5.80924787188287
C           7.73687979783528   -3.60539763095899   -6.93885478637386
N           8.57539930656448   -4.63985997697665   -7.51824962733805
C           9.29192041866502   -1.69683059654738   -6.35248878650109
N          10.23694280536718   -1.21123468461757   -5.35826138798873
C           6.41343033474965   -1.83508036970346   -4.58800748057904
C           5.56083365764943   -1.46331831848395   -5.55968116203645
C           4.29710087781059   -0.73042315969472   -5.26157463840553
C           4.06148430226912   -0.45381547744960   -3.81183165838851
C           4.92025165519562   -0.83614310937136   -2.84727295474470
C           6.11279770159461   -1.51913577243079   -3.17717459662400
C           7.17637715088215   -1.97440375018450   -2.41862384923214
C           7.49284402952492   -1.89570955057642   -1.04150804935501
C           8.70879632714519   -2.32674347269458   -0.60682195729959
C           3.13050024410111   -1.50763958008185   -5.82693397046365
C           2.48778858715063   -1.16397725421583   -6.93271861813197
C           1.29136313658687   -1.85197732571200   -7.49677615226330
S          -0.21364347220699   -1.38260805906788   -6.54023876334982
C          -0.55320840513091   -3.16946058562445   -6.13856791833358
N           0.02025583484610   -3.93489671524652   -7.17562088033313
C           1.34553454840969   -3.40933891541308   -7.49559127431610
N           1.67677765821845   -3.90961334803525   -8.80179993305553
C           0.41793217542006   -4.10533636147596   -9.51024034032975
C          -0.70143010115411   -3.93427440699064   -8.44200185077748
C          -1.79684557890498   -4.92757828538420   -8.55732458325480
C          -2.26296841188427   -5.83153738328444   -7.68063949479733
C          -3.65614954666482   -6.35668440140021   -7.86103172814171
O          -4.29845673277581   -6.36054037725872   -8.88285001768157
C          -4.07688340243726   -6.77766916453388   -6.51300129885338
C          -5.30903326513715   -7.18769813959497   -6.08955135512186
C          -5.49823718100128   -7.51047108013831   -4.72765251248765
C          -4.40012708664536   -7.40107790208101   -3.82404545429291
C          -4.59954994023515   -7.71814913011278   -2.46602491905330
C          -5.83546060414384   -8.12440739339474   -2.04580669559627
C          -6.92649259839023   -8.23951208795939   -2.91856619922413
C          -6.75130628656842   -7.93513300793201   -4.23973605469562
F          -6.02719589901203   -8.42730753537490   -0.74986648253761
C          -3.13243017173082   -6.98453672266637   -4.29079143441333
C          -2.97149486278983   -6.68108841729670   -5.61683388793419
C          -1.79595211597187   -6.27632898892954   -6.37583829504830
C          -0.49631733074115   -6.50407552763019   -6.02308212775471
C           0.57604471577848   -6.43842757925488   -6.93728380531266
N           1.47049934180038   -6.53957530975528   -7.65086256058373
C          -0.09905136460495   -6.94423226127743   -4.74416003342430
N           0.27522613894683   -7.26791852772928   -3.70846348084529
H          17.94530017347505    0.09246922900659   -9.84159033921905
H          16.82628994735272   -1.97396973759356  -13.40309684259568
H          14.88710903991827   -2.98756973211334  -12.23165303616775
H          16.62868897379407   -0.16842786288644   -7.79469890639521
H          13.54215856178062   -3.27674286765765  -10.18111272808680
H          12.24593846958485   -3.69040932269067   -5.08250090125880
H          14.38484035244202   -2.10542151641594   -3.51176590549714
H          13.43027962125339   -4.36885250111705   -0.83357334041149
H          12.55278988974621   -5.64127245646579   -1.74894494890534
H          11.65599172683619   -1.89251560852045   -3.13196960392320
H          13.07465953534051   -0.81752420086311   -1.54406015544593
H          11.11414765751616   -1.16536069501739   -0.35912032896487
H          12.22304429895950   -2.21302072969019    0.55721978790562
H          10.96911386427750   -4.06316874607983   -0.24534495661566
H          10.05116350861251   -3.55925855490160   -3.47699765072150
H           9.25551576746356   -3.63533694816587   -5.46079307335793
H           7.40026183040045   -2.85385792645295   -7.67605800577824
H           6.84860351390662   -4.09763546539362   -6.53012371868383
H           9.47155409050207   -4.25861310484683   -7.80436435959146
H           8.13155414469499   -5.05125023898475   -8.33154629803862
H           8.56856428905151   -0.92629125607080   -6.67386818987441
H           9.87343885202528   -2.00867087199931   -7.22459703919536
H           9.73439704116351   -0.91896738452603   -4.52530722809181
H          10.73753874883281   -0.40324693796327   -5.71326224692987
H           5.74728440492744   -1.67881176328891   -6.60202404838363
H           4.34034647056734    0.22805000228167   -5.80110684969483
H           3.14489123891759    0.06570454610572   -3.57695054715864
H           4.71369221523203   -0.61766196500548   -1.80922394218623
H           6.77718910952754   -1.47445317531341   -0.35050369203647
H           8.97093615740534   -2.24653692849203    0.43886530738234
H           2.85272658773560   -2.37720214257419   -5.24793094216836
H           2.78972386158547   -0.27259041123037   -7.46706748712734
H           1.12177191726211   -1.51022038038000   -8.51946656451524
H          -1.63007040244939   -3.30336921482224   -6.05566728154166
H          -0.06752308830741   -3.38959203379696   -5.18609830304917
H           2.06905915519716   -3.74744340466848   -6.74951275591960
H           2.16457001899839   -4.79582447785490   -8.70993212662640
H           0.37999312214680   -5.09530341548524   -9.96615435198665
H           0.31283348622480   -3.35417810405982  -10.29733378758217
H          -1.17539748917642   -2.94652138787631   -8.59224831871758
H          -2.39142207973332   -4.80570919175249   -9.45741056054104
H          -6.13078454264003   -7.26234399290766   -6.78591739097647
H          -3.78174072504159   -7.64431062361892   -1.76637267715096
H          -7.87811401916346   -8.56488047651407   -2.52928984073226
H          -7.57638289089759   -8.01585698193386   -4.93128971537608
H          -2.31880668574817   -6.90421439346541   -3.58706149748878
