128
 SCF done       -232.353188636103          0.000295989931
C           2.07599555942816    4.44312396348194    2.20859653804971
C           1.24641311354025    3.87069600029023    3.13285841923691
F           0.47996005388638    4.65477206691925    3.91010802923350
C           1.15926001415880    2.48238900722260    3.30757468273232
C           1.93113670655082    1.66809762814750    2.52697706668510
C           2.80517125681276    2.20509052851972    1.55895273949465
C           2.88024279999328    3.61994247925126    1.39735396811796
C           3.75764218304322    4.18301425193125    0.44081531499490
C           4.53357797571938    3.35828867447031   -0.32674100151713
C           4.44153745644079    1.94300622490885   -0.17321724392292
C           3.60501427676045    1.37357184766375    0.74550943040017
C           5.34087668480804    1.28829484857893   -1.13456544066918
O           5.54073522401662    0.10008395592897   -1.28180488442476
C           5.90048524989990    2.39374572226924   -1.96375699774510
C           5.54790000011312    3.65066788146208   -1.33702329034824
C           6.21458982718324    4.83498720788919   -1.48162356155743
C           7.42231957092350    4.96964447283480   -2.20531791751209
N           8.48636801195378    5.11130117685489   -2.61413184539125
C           5.86759726126019    6.01303197824573   -0.78828724586734
N           5.61136308308140    6.98979783876513   -0.24337653329097
C           6.46665464998933    2.09672887040403   -3.16709108863166
C           6.67000174497431    2.96534801957809   -4.26782407074955
N           6.32025759784867    4.24934874657848   -4.23291817068502
C           6.72355847479378    4.78062768911037   -5.39908130835080
C           7.39799863352247    3.77814306418546   -6.22939118272184
C           7.86500024107287    4.37415158441547   -7.49293057797498
O           8.45392735666585    3.84034495440580   -8.40583003251051
C           7.42535432262401    5.77856276806400   -7.36112365858041
C           6.72565558363583    5.98056471998853   -6.07410477213778
N           6.29024304822140    7.25650854527149   -5.95854848964873
C           6.66882714833530    7.84836843757334   -7.06692679105328
C           7.37347911880988    6.98047084072138   -7.99043948664488
C           7.32253640741010    2.59492455981421   -5.54555352225749
C           7.81175310967771    1.30792864785001   -5.94019497925605
C           7.21650478228725    0.14591881665697   -5.61182422431159
C           7.72971769499526   -1.18250458862256   -5.83271836166340
C           7.20249056855535   -2.19161066750975   -5.05145469727960
C           7.75952111418996   -3.48084480139172   -5.07763908378816
C           7.50275372184035   -4.62617894249586   -4.32593142890667
C           6.42703036885609   -4.95364484788456   -3.34838626040489
C           5.73469785990806   -3.75969086310708   -2.67394027382785
N           6.70530342402060   -2.79931546747024   -2.18709080455395
C           5.36561281011030   -5.85768447347692   -4.05974185284388
N           4.81776842445280   -5.34296644859513   -5.29086019436953
C           8.42429740124944   -5.64003089247971   -4.79119603154806
C           8.61487054856851   -6.91311241209560   -4.39651421177180
C           9.52083376788783   -7.82089466487251   -5.14408140955116
C          10.38349180163339   -7.14790019764175   -6.16789964532206
C          10.22021471776798   -5.85214673999538   -6.50945965029182
C           9.24167928965596   -5.06474923948313   -5.86645911677243
C           8.84987098091698   -3.74304310778282   -6.00832015195771
C           9.32273027976387   -2.71110074287470   -6.84789775557449
C           8.78772655383910   -1.46441436400039   -6.74977046606231
C           8.70900104767613   -8.78225733434086   -5.98125915930418
C           7.49281130439744   -8.50871264819692   -6.47995825880395
C           6.77067275407574   -9.45685613264068   -7.26362327795256
N           7.28610896631431  -10.62431897235065   -7.61798622595359
C           6.31971403887409  -11.26381526195665   -8.30065410154921
C           5.09662746849485  -10.44049413344456   -8.40150952555941
C           4.01532520381397  -11.21872923740419   -9.03713085499204
O           2.84740806132190  -10.92358673471792   -9.18157835474481
C           4.69200320449059  -12.47487888336503   -9.40109252927971
C           6.09012188512469  -12.46565142137166   -8.92293612420598
N           6.70691041116353  -13.63436078068979   -9.22436640176997
C           5.80064767363334  -14.34770093775402   -9.84785087978100
C           4.51845991319934  -13.68728045546784   -9.98704077308185
C           5.38464808166011   -9.26638783474285   -7.74999470627548
C           4.57704492489929   -8.10521210390584   -7.54991812920072
C           3.58755053391251   -7.75473714702843   -8.40329833492194
C           3.42656570979560   -8.33925099578434   -9.69151750772713
C           2.29132725812399   -8.52724998937380  -10.40653206571122
C           2.37018984186761   -8.87652691325360  -11.85082626674432
O           3.37245671291232   -9.15483483677815  -12.46956346022986
C           0.99030644028444   -8.75850182424477  -12.35561449891713
C           0.53054527361526   -8.88942461437706  -13.63454720764953
C          -0.84583590807005   -8.70961137559609  -13.89514567408894
C          -1.72246437486459   -8.38797248624721  -12.81812766348433
C          -3.09322796785364   -8.20341787082955  -13.08532699783199
C          -3.55191776936312   -8.34017078959201  -14.36569754902968
C          -2.70646626650713   -8.65811693386785  -15.43759970856407
C          -1.37306946295999   -8.83847527313998  -15.19667773749332
F          -4.86126760297156   -8.16537909939236  -14.62256647880129
C          -1.21951793628099   -8.26444704056258  -11.50208446352945
C           0.11640928824525   -8.45529134922834  -11.27084972924759
C           0.89500547318908   -8.44247775715059  -10.03381575448691
C           0.38154860619511   -8.54957205113720   -8.77091335656764
C           1.12680140201112   -8.80878294567275   -7.60005005477669
N           1.63025377638353   -9.04700350864947   -6.59669765538351
C          -1.00057204932307   -8.50793403334284   -8.48667155391114
N          -2.10987443200982   -8.45461245334925   -8.19636867963720
H           2.11932900340498    5.51586823003958    2.10375240359919
H           0.48657096078958    2.08839930669880    4.05273479581168
H           1.88128343294795    0.59585905247944    2.64330209117137
H           3.78959838114706    5.25548503054033    0.33378221381184
H           3.55482432910818    0.30008305275192    0.85209733634520
H           6.71104217876201    1.05189017998525   -3.31051550534612
H           6.45275340425684    8.89048148603756   -7.22649050744019
H           7.75719508590890    7.27030950494563   -8.94857477286529
H           8.70157240741178    1.32522014043176   -6.55498959537327
H           6.27740326265175    0.17606910353531   -5.07413020180786
H           6.41565287175883   -1.95859990078717   -4.35769144493962
H           6.87435534818609   -5.56837146280786   -2.55759217226475
H           5.08112049403819   -4.16726437686831   -1.88134619425218
H           5.08309304141513   -3.25105875923753   -3.39055842807018
H           7.27386643864514   -3.20746107719880   -1.45355494214450
H           6.24799640982484   -1.97747032606098   -1.80577443537673
H           4.53799380372216   -6.03926436313261   -3.37066555995231
H           5.83397168157363   -6.82008466274171   -4.28640854348252
H           4.22250693669739   -4.54083762690912   -5.12289442415427
H           5.55914474710391   -5.05191102556144   -5.92119849356850
H           8.07026374118436   -7.35192577762712   -3.57214788764047
H          10.13360102588976   -8.40257951218255   -4.44582315615863
H          11.11244633384191   -7.77126555741095   -6.66058267810850
H          10.84341297372187   -5.40242191391420   -7.26834400755322
H          10.11743033391959   -2.91923065356317   -7.54871552043794
H           9.15142682332712   -0.66882346370696   -7.38100150734074
H           9.16842192025282   -9.72849003452372   -6.22671810076165
H           7.00315954535835   -7.56646522341918   -6.28009923238805
H           6.03737205950216  -15.33621907720588  -10.20167372569000
H           3.64998716535284  -14.10297306999302  -10.45827070226857
H           4.72680780719868   -7.52246255277565   -6.65156951226125
H           2.91484063372732   -6.95427817824496   -8.12514679343481
H           4.33757336695599   -8.64679028269947  -10.20060311207139
H           1.21014766661864   -9.12844045213411  -14.43891826126261
H          -3.77400542626267   -7.96181040293697  -12.28405447967511
H          -3.12582938181043   -8.75352421212142  -16.42659963500545
H          -0.70170904188690   -9.08412330422266  -16.00575157803857
H          -1.90631312305445   -8.01562824707979  -10.70867849067123
