115
 SCF done       -215.480182858024          0.000841425658
C           2.40664892722939    6.21133886864958  -12.55651139445215
C           1.23019915113874    6.90965028901970  -12.54794497384952
F           1.04502477689995    7.90001550067662  -13.43846195011408
C           0.19524509556096    6.63568307331496  -11.64200056051549
C           0.36410022404210    5.63320918683998  -10.72813667358547
C           1.55825441942114    4.88316267739858  -10.69416607007581
C           2.59977279292471    5.17500230523862  -11.62334070543290
C           3.80448052899096    4.43241245020406  -11.59802974041092
C           3.95597645013304    3.43246697672808  -10.67641942979623
C           2.90169070572774    3.13650089121371   -9.75836811827929
C           1.73083362304941    3.84307254099399   -9.75665143092465
C           3.29001047814967    2.00367641012516   -8.91138898162275
O           2.67867080756363    1.48342281210316   -8.00725583878527
C           4.60365077908130    1.53750765393984   -9.47207860197363
C           5.08118636720320    2.54446789482251  -10.39536538765348
C           6.38867114628313    2.75570451344743  -10.73348184873562
C           7.46765778018594    2.07343576886134  -10.12374108855965
N           8.38234870872377    1.69015378108453   -9.54457528484994
C           6.81032779656861    3.79058226430475  -11.59439867282995
N           7.18524831938792    4.61607424621516  -12.29709882630300
C           4.99840644047381    0.26475197548395   -9.21115006996725
C           5.92854213106042   -0.52880406999960   -9.93244500456323
N           6.66245927568609   -0.05676196530114  -10.93028998463518
C           7.48904818689554   -1.05493728129001  -11.29687503985867
C           7.27317896179370   -2.24693131240696  -10.46533795465457
C           8.17626635392325   -3.33845246267437  -10.86647394835464
O           8.25236579158222   -4.45590763723856  -10.40783070202862
C           8.93922575150789   -2.72446736506685  -11.97239342468582
C           8.47920681934165   -1.33399787725644  -12.20531030723197
N           9.14253598473216   -0.77943028243320  -13.24818472059855
C           9.96134162024695   -1.71062906897485  -13.66835370855821
C           9.87692909331033   -2.95614372895974  -12.92365925517376
C           6.23250432246928   -1.95113062216022   -9.63060742671086
C           5.57967574875806   -2.80799232176251   -8.68717138397419
C           4.25730920429105   -2.73221658171574   -8.43093018823963
C           3.49452361390277   -3.44339211152027   -7.45613462412321
S           2.08510582540188   -2.59306648905563   -6.91340403313271
C           1.74598909009704   -3.80809664219145   -5.71353479254949
C           2.67971175139728   -4.84082979782285   -5.78746804198940
C           3.65776349118191   -4.64475879441264   -6.77670998775196
C           4.72424615658364   -5.66003067881604   -7.10499454742298
N           4.69658349004985   -5.96486896109545   -8.52839047049926
C           4.47410155792835   -6.96944375723110   -6.34885406432548
C           4.04925562745953   -6.71080079334532   -4.91268942563381
C           2.66563837107912   -6.04174670531592   -4.88163792690093
N           2.21871241816123   -5.67600233090809   -3.54725215514170
C           0.64670543820380   -3.63947108263819   -4.84489450116661
C          -0.07502880456998   -2.48288102754232   -4.82381611821028
C          -1.18137141150203   -2.23834972935515   -3.98897684565461
N          -1.62590433745975   -3.10192999940015   -3.07556522115690
C          -2.62806480265181   -2.48639018455912   -2.43407566063358
C          -2.82352607863597   -1.11930552573172   -2.94616475200020
C          -3.93715856680201   -0.44169219060233   -2.26476790453696
O          -4.35337826151369    0.68123983203367   -2.46044415964474
C          -4.38954032167114   -1.46925816974951   -1.31617932781860
C          -3.56670450425092   -2.69450360557207   -1.44604119175632
N          -3.99208267628453   -3.64584813180397   -0.58551314912026
C          -5.01032966240948   -3.10776097982036    0.04812639917826
C          -5.31459444563634   -1.75667400513052   -0.36134199339046
C          -1.93003141787264   -0.95640045897526   -3.96433354705729
C          -1.84881525473849    0.20911574336705   -4.78577870423711
C          -1.50608906185331    0.27870958177651   -6.08888027640268
C          -1.53290654735552    1.49524381847457   -6.83482058062959
C          -2.30810916104429    2.59320200459093   -6.64368125721664
C          -1.91691522965446    3.87535266071004   -7.28894764431180
O          -1.11711286584041    4.01741115712961   -8.19104886636245
C          -2.65662884571483    4.92214314353399   -6.56926893221004
C          -2.54188602993207    6.28040778284832   -6.66357998577899
C          -3.33183846149721    7.09721384592245   -5.82595201453849
C          -4.22366798069166    6.48788549603841   -4.89473308885432
C          -4.99594078865309    7.30971876738192   -4.05105934969297
C          -4.87729056473582    8.66838474596354   -4.14520573181104
C          -4.00869855293201    9.28622542377135   -5.05598959168898
C          -3.25045198145459    8.50418828860980   -5.88131747288947
F          -5.61326387812910    9.45533248368871   -3.34102278266637
C          -4.32852342183286    5.07927918806394   -4.82463173607103
C          -3.56434189712679    4.30888924101099   -5.65822868205143
C          -3.47950541346235    2.85909540102614   -5.81814485903147
C          -4.46892515843255    1.98424022483857   -5.46714532264838
C          -4.47178872690862    0.61175695416754   -5.79000514911175
N          -4.54111779102177   -0.50058478142097   -6.06299153126116
C          -5.66545094022984    2.37618253750701   -4.82623548627918
N          -6.66773956492442    2.65774417861826   -4.34565455705322
H           3.17972030897271    6.45325243492644  -13.26900962806728
H          -0.70986946945337    7.22047208747285  -11.68974724963759
H          -0.40934143065608    5.38777632534742  -10.01651656417112
H           4.57492420470600    4.66508612657568  -12.31614712282812
H           0.93972841976894    3.62118838484964   -9.05660849301848
H           4.46619694726006   -0.21770952784483   -8.40053057661080
H          10.62391362817784   -1.51943402669625  -14.49440437767813
H          10.45538502421620   -3.83750860667109  -13.11777106217368
H           6.21105514015774   -3.54605973898857   -8.21325091798709
H           3.67174173281821   -2.00219914375972   -8.97620987523527
H           5.69606483613080   -5.24286373114685   -6.76829859872498
H           4.87962315305117   -5.14718141133584   -9.09690282099417
H           5.40468409875634   -6.65658005977979   -8.74732281424682
H           5.38200604400828   -7.57427175168886   -6.37463150699030
H           3.68833105885505   -7.51575492993339   -6.87364719180836
H           4.77646641977450   -6.05711963232126   -4.42144201882903
H           4.00868371899763   -7.65000662662106   -4.35716075759077
H           1.92347209618084   -6.75050442112941   -5.27710655019142
H           2.88160259655149   -5.04579735820673   -3.10820831149850
H           2.13691387158335   -6.50081418310928   -2.96454527201625
H           0.40446362850265   -4.44608110850096   -4.16869773446057
H           0.22850648771204   -1.66952264363976   -5.46964454570623
H          -5.53665922985225   -3.66874872605606    0.80093179172463
H          -6.10605588871103   -1.14768652385128    0.02837127743054
H          -2.16551397753984    1.11587553624310   -4.28307432691530
H          -1.15974388602335   -0.59680136927982   -6.61920356907255
H          -0.80078246989498    1.57973159670343   -7.63277584424769
H          -1.85183941943877    6.72852188493735   -7.36325504157845
H          -5.67716677668520    6.86815108708906   -3.34081940625455
H          -3.95742323711663   10.36304045329313   -5.08446260990809
H          -2.57338656143996    8.95721547572229   -6.58992443957505
H          -4.99907905585805    4.64164905680919   -4.10235349774158
