104
 SCF done       -203.879843959508          0.000676605872
C           8.66868041438803   11.05750165428405  -10.61210891401347
C           8.14344993255249   11.93289170347076  -11.52199333005588
F           8.91179159455365   12.92213375060910  -12.00800021694833
C           6.82041631897509   11.84093489739012  -11.97734445753267
C           6.02296034657009   10.84121102059509  -11.49504790722573
C           6.51361332507210    9.90961741028636  -10.55632365386361
C           7.86261767068809   10.01973069831157  -10.10576527223214
C           8.37817998589533    9.09675716075143   -9.16587156574896
C           7.57227803855945    8.09464519583637   -8.69789065742726
C           6.22790156711648    7.98178551983134   -9.16202432223579
C           5.70214705295295    8.86553450948226  -10.06215399876299
C           5.59719896910154    6.80062760997426   -8.55292482266201
O           4.45578088207259    6.41742551017596   -8.64863552019458
C           6.70792766814029    6.10755395606819   -7.82352343225166
C           7.82655268708393    7.02601386119279   -7.73512956345640
C           8.81171617249001    7.01278467911038   -6.78968544343268
C           8.84638447021120    6.10290139863911   -5.70853372848973
N           8.85810987716695    5.48303404333705   -4.74255919365767
C           9.82557920211204    7.99088856900377   -6.70896491442093
N          10.66671223602320    8.76489197744963   -6.61199246750635
C           6.58894235796835    4.78281070454472   -7.54979972011221
C           7.63426046095797    3.86973075672313   -7.25255260137836
N           8.91507586236709    4.20931925669761   -7.31876118821063
C           9.61070931693217    3.08609898767865   -7.06386508496258
C           8.71549841550622    1.94281161239725   -6.83491770784805
C           9.49948154843517    0.72639759919591   -6.56118415710523
O           9.10105172355849   -0.40339030114876   -6.37588378769836
C          10.88858954653255    1.22117459239841   -6.59474840170377
C          10.91031248164960    2.66468027723910   -6.92370275350802
N          12.18233442684601    3.12767486617220   -6.96507818841959
C          12.93246441360376    2.09321659655329   -6.67558044279764
C          12.18816181546204    0.87010748865876   -6.42977931346611
C           7.43713224323344    2.43341476884728   -6.94334108494855
C           6.17260214207148    1.79296373577729   -6.80324806535563
C           6.04595601719970    0.45441733388684   -6.66360038184145
C           4.81460269559717   -0.27398337297194   -6.53522988529894
C           4.81850805419048   -1.63723946057586   -6.81201871184392
C           3.66089505430522   -2.40290320419794   -6.81318469000459
C           2.43352144598818   -1.85657561704267   -6.46511726671694
C           2.38962196021081   -0.47802298365861   -6.09495713911654
N           1.24567866982987    0.05256277179201   -5.64698763589026
C           1.19807228360935    1.32642092072340   -5.38410777020413
C           2.33774631126039    2.14020274094189   -5.53895522729487
N           3.48907260609553    1.63074044744794   -5.87824784948986
C           3.56847247051844    0.32155082727004   -6.16740461865802
C           1.20635878473350   -2.59683892651615   -6.55559515878468
N           0.08438272492314   -2.00534349639408   -6.91859038965521
C          -0.83381896014283   -2.98335878383855   -7.03948241395727
C          -0.24891461316328   -4.30159480354844   -6.73541012544557
C          -1.24918049463294   -5.36477017356054   -6.92817564094457
O          -1.10398477289579   -6.56597150348904   -6.82759013648747
C          -2.45373964284883   -4.60981397490115   -7.30716279986315
C          -2.15457472167911   -3.16083567390091   -7.36885109949928
N          -3.26458566017955   -2.45984754209519   -7.70308892857120
C          -4.20911575048179   -3.35758268680719   -7.84269839711627
C          -3.77356552517044   -4.71964497134124   -7.60482561880925
C           1.05143300110471   -4.06162254499940   -6.36597870307961
C           2.03818313904013   -4.96602960532937   -5.87804603285181
C           1.90432063918757   -6.30572371685975   -6.02227835924880
C           2.88070448900271   -7.25838930773822   -5.63179906766358
C           2.95164566752553   -8.52345234159928   -6.12458392132251
C           3.72631833058317   -9.59199954496697   -5.43435029729314
O           4.55918987199732   -9.44027304173735   -4.57136423028588
C           3.21107337716180  -10.85657308147541   -5.99459458188078
C           3.50829318292285  -12.13892168567554   -5.63168726953121
C           2.87655239259266  -13.20999988430756   -6.30204106049739
C           1.93592199964879  -12.92969833416838   -7.33628889312372
C           1.30732112781299  -14.00242705597491   -7.99798708918190
C           1.61396233945498  -15.28517850263423   -7.63795062441056
C           2.53612335001216  -15.58148615692743   -6.62457678668436
C           3.15414127919932  -14.55227909008655   -5.97065913421269
F           1.01689487673384  -16.31109887761786   -8.26999384023224
C           1.64893174632242  -11.59208888506834   -7.69445140194949
C           2.28294588040443  -10.57123953538744   -7.03934614428091
C           2.22850432044106   -9.12512825388123   -7.22720939659565
C           1.77860809191908   -8.47832094261606   -8.34770396412244
C           2.05115980549581   -7.12400576149599   -8.63768243764321
N           2.32035786416038   -6.05418722889010   -8.95559672297536
C           1.10729297653292   -9.12370432120684   -9.40768656673303
N           0.55096749816225   -9.60037750620108  -10.29077288059244
H           9.69077210201765   11.16016261986275  -10.28280420835841
H           6.46217944916178   12.55949074725746  -12.69729169452517
H           5.00098723759362   10.74972533565538  -11.83063274915413
H           9.40437634928001    9.19553375339244   -8.84935360449002
H           4.68118969336729    8.76371413066207  -10.39851768244800
H           5.59665995398421    4.36683744423181   -7.68307413327817
H          14.00345701190800    2.19215809645060   -6.63915883851055
H          12.61694235874567   -0.07943810481095   -6.17752374288094
H           5.28995219139037    2.41361789335898   -6.82210285923192
H           6.93925797742569   -0.15841625964794   -6.68509893345882
H           5.75262846198463   -2.10202689740320   -7.09167691070419
H           3.71030230418163   -3.42386358529565   -7.16023252221101
H           0.26243663688727    1.71872688659578   -5.01220640169206
H           2.31362567069305    3.20241657994781   -5.33869518981720
H          -5.20641343163143   -3.05842302760022   -8.11514025130860
H          -4.39317878356527   -5.59241751313174   -7.66443246985276
H           2.92962013716548   -4.55232561158020   -5.42620607177781
H           1.00205152210845   -6.68785424157378   -6.48247661550964
H           3.59249973646191   -6.99335023379495   -4.85763383627788
H           4.21895957544169  -12.33455176834797   -4.84265989797934
H           0.59433347310458  -13.81116615297810   -8.78466442236948
H           2.73761662196442  -16.61322540889455   -6.38380497537624
H           3.86828584432124  -14.75576426819216   -5.18700085051274
H           0.92747657667519  -11.40650915366929   -8.47437395290184
