120
 SCF done       -213.760057449498          0.000757823401
C          19.32784975491579    3.56997593324513  -12.86229007170764
C          19.54423744140260    4.69245959559909  -13.61195411769046
F          20.64131197740672    5.44084015598836  -13.38396658792102
C          18.66296827649467    5.10454378637020  -14.61970837202163
C          17.54418995982030    4.35731820250463  -14.86480811234892
C          17.27166815568360    3.19091148118165  -14.12209211197729
C          18.18140633738673    2.78826759415034  -13.10208425218297
C          17.93347714719410    1.61594015394834  -12.34874539052067
C          16.81028281256751    0.88048026203266  -12.60634550492043
C          15.89650095784214    1.29460162871680  -13.61828823236427
C          16.11541641629721    2.41424619881974  -14.36561905686760
C          14.76212732966378    0.34763394753435  -13.66427745156215
O          13.81674833187216    0.35659912507156  -14.42565482135602
C          14.99180830856204   -0.58556770444147  -12.54095316502741
C          16.31934061269214   -0.37104970857422  -12.03324333859087
C          17.09129376942756   -1.30150594317806  -11.37772588570333
C          16.66262466348423   -2.62800697443077  -11.18140280586740
N          16.35271226782815   -3.72935605711192  -11.07684301949983
C          18.41157174352225   -1.06986673980237  -10.95396462578103
N          19.48292214032231   -0.91687271121804  -10.56830111877093
C          13.96696350419544   -1.39389349359887  -12.11365132812340
C          13.74618117342813   -1.97640336888192  -10.86508815534412
S          14.57903653082529   -1.53888142017893   -9.37087354018203
C          13.61204190672326   -2.58068496028952   -8.36048267206911
C          12.68079643804500   -3.24558369022002   -9.15879897041062
C          12.75379780410566   -2.89501204752319  -10.52819997356134
N          11.78492979352134   -3.63034634384598  -11.14260400208310
C          11.18600648252864   -4.36766946311571  -10.15308956560530
N          11.68194577540087   -4.16494884828334   -8.97250926622975
C          13.82124946684861   -2.65797226683459   -6.96933619084923
C          13.08790244970771   -3.49501689996325   -6.18815767645583
C          13.19810281385960   -3.67919287285610   -4.77432414718328
C          12.38838406963999   -4.62356076033827   -4.17223648097402
C          12.45390638031620   -4.84312122096322   -2.78566673479046
C          11.75468202486745   -5.71815047003535   -1.96557774726078
C          10.70688161005418   -6.68810621123184   -2.39521302532175
C          11.10817694921007   -8.14141970094595   -2.07555476910277
N          10.42644727239696   -9.03608006523471   -2.98924802952574
C           9.33954232747909   -6.31960376599177   -1.79118953576546
N           8.28037520997793   -7.12072652335720   -2.38619714139201
C          12.24163628421994   -5.50401332529576   -0.62226006325920
C          11.91756207795621   -6.07851253699442    0.55024358234900
C          12.59361045922945   -5.69856511355996    1.82676660897016
C          13.58838097548371   -4.59247371975511    1.69977995723370
C          13.89436600955466   -4.01879410204496    0.52300754522188
C          13.26437112636184   -4.44711507370985   -0.67197312340108
C          13.38793590785594   -4.05722702047956   -1.98685105560948
C          14.20821234139488   -3.09640362382373   -2.62804012541562
C          14.11409654836219   -2.91813873316799   -3.96737337442874
C          13.17361720839761   -6.97235298219330    2.38832973802178
C          14.47633647282407   -7.21287569301304    2.56446390740526
C          14.99103407356867   -8.44636828348649    3.06899301947547
S          13.99084636726254   -9.86592568228557    3.27642140056025
C          15.28104691041727  -10.85365710773826    3.93628793897148
C          16.43909437792523  -10.07947103005159    3.97403913745968
C          16.26908661129922   -8.75328783752705    3.48615304552515
N          17.50378311288204   -8.16993982805578    3.60674087318958
C          18.32279028894495   -9.13143986185613    4.13455467544146
N          17.73400685799095  -10.26377504991640    4.36803485060101
C          15.18843582223651  -12.20187799596126    4.31913065073609
C          14.10679318265045  -13.03568350348188    4.27163233050195
C          12.78255780474305  -12.65688849664996    3.98334755374011
C          11.73500199022535  -13.48086947409482    3.67419947245196
C          10.33966765754017  -12.99942913487131    3.80828672028859
O           9.97797127064326  -11.85307003652325    3.96716903252152
C           9.50086482204747  -14.21377519626354    3.74772980739210
C           8.15193572824896  -14.33770894258919    3.91154868269710
C           7.56183174190665  -15.61971810818665    3.83541951499797
C           8.38909166335964  -16.75496708623332    3.59559246819177
C           7.79626844612804  -18.03058408490786    3.52779218271846
C           6.44418705526860  -18.15172686740459    3.68923722452781
C           5.61328164910985  -17.04783166559182    3.92286690229229
C           6.17298870423247  -15.80239729349737    3.99355004863553
F           5.87533074875144  -19.37007702885721    3.62378102638071
C           9.78417814382329  -16.59590093029505    3.42116968087071
C          10.33052059088864  -15.34357553072069    3.48919911799041
C          11.70297577298601  -14.87467434633815    3.30484716271384
C          12.70668691474429  -15.57757172597899    2.68587397260086
C          13.90012641167077  -14.98933800647614    2.21875849121643
N          14.85530855861130  -14.54871958648920    1.75890398159846
C          12.60616464422230  -16.93662191705718    2.32816994349715
N          12.58250128248049  -18.04887596377288    2.04353152942928
H          20.03027474893682    3.28052695583127  -12.09630763802869
H          18.88529749695163    5.99941651919879  -15.17911834458934
H          16.84985063376234    4.65448368674942  -15.63650259244881
H          18.63486530747617    1.33351242701139  -11.57935709838531
H          15.41677916228441    2.70665254112152  -15.13526898879264
H          13.15622375781067   -1.50854056440385  -12.82870196245160
H          11.56580472991812   -3.64745212846901  -12.12423149361559
H          10.37902075886107   -5.04430939491235  -10.35553887711103
H          14.60063946689481   -2.02871458050541   -6.56496637380766
H          12.34120285146225   -4.09776844081262   -6.68921499142029
H          11.70485851183010   -5.20069717119600   -4.77798897069038
H          10.61240607493352   -6.63425508927050   -3.48416772693548
H          10.89875061600202   -8.35640471480319   -1.01487813136293
H          12.18630510509860   -8.25491892577032   -2.23236824476009
H           9.42357910945254   -8.92552979484325   -2.86687377425293
H          10.67303113211745  -10.00009252794995   -2.79440334271976
H           9.18656646636976   -5.23430192680540   -1.92544350314643
H           9.33945269510397   -6.52157811553224   -0.71696771620615
H           8.20581213286718   -6.91376402671427   -3.37746887359096
H           7.38847423374626   -6.89996690193874   -1.95594183364442
H          11.18072102841804   -6.86483492867542    0.62250887412290
H          11.80837980478608   -5.37790575757973    2.53215258879912
H          14.04859599144262   -4.26433405843323    2.62011942244706
H          14.61747236895668   -3.21732679382545    0.47159158777347
H          14.90209455364501   -2.51426300063545   -2.03904956332104
H          14.73810219416198   -2.18484453838251   -4.45290490521605
H          12.45435071485151   -7.74418707195395    2.62856322624026
H          15.21079214376881   -6.45160989533633    2.33611824196703
H          17.76216007634445   -7.23413363332027    3.34516321646926
H          19.36051674568148   -8.94737413094965    4.33452572621417
H          16.13874765278968  -12.61412430043495    4.63384788956837
H          14.28432178144604  -14.07710432708122    4.50455743088001
H          12.51268280820949  -11.61331748448718    4.10839763471685
H           7.53963808966362  -13.46775765156919    4.09688449994813
H           8.40504327946563  -18.90235437329679    3.34524589106069
H           4.55286473847256  -17.20463067332152    4.04143735367015
H           5.55325650364221  -14.93652975857461    4.17261777831475
H          10.38664152836879  -17.47286375402098    3.24441454262400
