104
 SCF done       -205.821217528765          0.000560645064
C          10.70668784859616  -10.51374211012862  -10.11820680449430
C          10.72578615434091  -11.84913103491511  -10.41183155433625
F          11.74344878834663  -12.35443249182667  -11.12802844487857
C           9.71479437485814  -12.72602362239230   -9.99232965367293
C           8.67058852346139  -12.23150716257460   -9.26222617652301
C           8.60018274267828  -10.86217118053629   -8.93057083317887
C           9.63718472203291   -9.98562933873991   -9.36910757932264
C           9.58263816669691   -8.60710839080553   -9.06018980659432
C           8.52497707321995   -8.12238966950793   -8.33797667430544
C           7.50029505406497   -9.00688575053418   -7.88559549677770
C           7.52802869188286  -10.34250945821479   -8.17342535616104
C           6.50144082424034   -8.25087437837912   -7.11189699414160
O           5.45319922609862   -8.63072608349497   -6.65412883733088
C           7.09023324826353   -6.87812293427914   -6.97497826945946
C           8.19075562753780   -6.76664370752987   -7.91983125074247
C           8.65947139655103   -5.61199928849991   -8.47715918275953
C           8.11198688432370   -4.33848984186690   -8.21092787270817
N           7.65316996437233   -3.29421584112010   -8.08349728697646
C           9.66860022213400   -5.57419888347773   -9.46376685254387
N          10.48241022697732   -5.50013777231849  -10.26833450912980
C           6.67106039423751   -6.03756011975041   -6.00674996680867
C           7.34632945191669   -4.85118072052877   -5.57581684144882
N           8.66003494620208   -4.75807475702773   -5.53035433347207
C           8.92643831760202   -3.53886621991949   -5.00909695598236
C           7.68847420086637   -2.81174892865375   -4.69361084899078
C           7.99810481112162   -1.48285223546314   -4.14846777893345
O           7.23131640449019   -0.63306924570668   -3.74167077472136
C           9.47048033058287   -1.44785969011414   -4.19559510116536
C           9.99593280606508   -2.73485683077726   -4.70946394140237
N          11.34991476293265   -2.70857816802637   -4.76248650049135
C          11.68829606880986   -1.51534370678881   -4.34396746415119
C          10.56219736670469   -0.67245297507223   -3.98112696311463
C           6.65879525152882   -3.64075339825918   -5.06916137972838
C           5.25188948427918   -3.46855282232199   -5.04937852950925
C           4.66734138973458   -2.39345251926121   -4.46154707937323
C           3.27968052479383   -2.14350798222628   -4.34783639684305
S           2.82289290259641   -0.48599766215770   -4.18743074583976
C           1.12827471738924   -0.82742511228106   -4.24847122384171
C           0.92252226287986   -2.22200522569815   -4.36984443910569
C           2.13868239005502   -2.96972949552004   -4.35353918179326
C           2.05424698193531   -4.38160672478769   -4.23444534819012
C           3.17232628044144   -5.19727882838285   -3.95911127787429
N           4.03855016432236   -5.90349637570855   -3.69809924739391
C           0.81434723677175   -4.99378253644038   -4.26965332995167
C          -0.36005516041310   -4.24444404726477   -4.39101267578070
C          -0.32027923425420   -2.87364912993256   -4.41201888948432
C           0.12897884492283    0.16271420629204   -4.13231738025806
N          -1.11060078055462   -0.05906052825684   -4.56794817537995
C          -1.82887150201134    1.02166047181740   -4.22725919113705
C          -1.01370614494086    1.99314092904300   -3.48652870105384
C          -1.82729223523677    3.15282164311100   -3.07265685219008
O          -1.47997847796136    4.11920448651452   -2.43164822745350
C          -3.15085481538196    2.82227670692832   -3.62536773641671
C          -3.11121991515910    1.51507986846798   -4.31687338325939
N          -4.33002642691247    1.19544613776260   -4.80712478097620
C          -5.10825153854098    2.19936863216324   -4.47203262587327
C          -4.43832057098516    3.24505875326376   -3.72977950720556
C           0.24800510344536    1.47166474892143   -3.43024158341629
C           1.38846104551993    1.87989687587115   -2.68410459777283
C           1.38679536357088    2.71766776164049   -1.62473006484208
C           2.54904086222244    2.81599577801731   -0.79431754766103
C           3.37181429744755    1.77356396299498   -0.51034288101651
C           4.77913739312570    2.00284328997076   -0.06376958145218
O           5.23297462765923    3.01426028653007    0.41264597682118
C           5.48909188906641    0.75145056820999   -0.40187893251298
C           6.82779018885167    0.48395972767850   -0.36718649898184
C           7.28811394373068   -0.79153252173841   -0.76395746267204
C           6.34653591403848   -1.77818416775115   -1.17778025215326
C           6.80919773105919   -3.04478296438866   -1.58470704455132
C           8.15275392285434   -3.29507306242503   -1.58536251964221
C           9.09653708803108   -2.34082114559228   -1.17967926652894
C           8.66115843742149   -1.11099136875782   -0.77037235632388
F           8.60254661460495   -4.49359621954761   -2.00132786067305
C           4.96722802453518   -1.47735235244314   -1.19789397522556
C           4.54564727101056   -0.22894235635277   -0.82589150482532
C           3.20983979936046    0.34820495133920   -0.75681307670436
C           2.04241399873345   -0.36851278185730   -0.73240186094808
C           0.77404180592753    0.18167590598967   -0.44842582427619
N          -0.28213122171379    0.54428944643708   -0.18497514453364
C           1.95541011534061   -1.74319442316809   -1.02179764617284
N           1.81071106613333   -2.83997172733216   -1.33308255335193
H          11.50027782900772   -9.86804643028910  -10.46021968656385
H           9.78391101947729  -13.76979911779937  -10.25460520425661
H           7.88070845567736  -12.88701158711690   -8.92796456585086
H          10.38370490786285   -7.96653000884070   -9.39371055722478
H           6.74003870459808  -10.99419185619893   -7.82677994385493
H           5.77423525531774   -6.31313312081495   -5.45845949621862
H          12.72516570565790   -1.23306718735706   -4.28700482452294
H          10.62832140433781    0.33635610014986   -3.62462354547535
H           4.65932296984622   -4.22177495583221   -5.54458571265071
H           5.31112126059221   -1.60334874294968   -4.09096804902216
H           0.75945220905245   -6.06809609054063   -4.17339430473399
H          -1.30836632396383   -4.75767138356097   -4.42394489167566
H          -1.21519423334928   -2.27347278764171   -4.44890043265279
H          -6.14821529977673    2.19396142075664   -4.74886835787910
H          -4.89681249526242    4.14118528186409   -3.36140176099296
H           2.32455721382411    1.39756666547213   -2.93046712306660
H           0.52345536158782    3.32969266334194   -1.39990767159476
H           2.82727669049238    3.78596258564034   -0.39864467264837
H           7.52977863123518    1.23921790211681   -0.04732844002116
H           6.11081260903194   -3.80397226240634   -1.90289185014124
H          10.14375152148049   -2.59941408545457   -1.20160266446427
H           9.37019338322435   -0.36025054696959   -0.45576880556577
H           4.27919669037044   -2.24136757385957   -1.52427016159228
