104
 SCF done       -201.409888838627          0.000308493853
C          10.93788616766381   -0.14055763062477    8.43522503077449
C          10.72187301584010   -0.48092195727710    9.74198653380727
F          11.74303616293761   -0.44014273844669   10.61368915029236
C           9.46379156609444   -0.87758021906838   10.21786474467596
C           8.41233422860672   -0.92736031258745    9.34617014414059
C           8.57924264167362   -0.59004465137495    7.98656449384592
C           9.86671255751023   -0.18728477314781    7.52222000482806
C          10.05945402704180    0.15568139949382    6.16361164259610
C           9.00111833305465    0.08974858998620    5.29848250269835
C           7.71956100934127   -0.32969180429438    5.76482449750273
C           7.50367309141814   -0.65519999090982    7.07468300981859
C           6.77777362295718   -0.37589467080025    4.63588122125104
O           5.59588642586192   -0.62271079816697    4.64429160649622
C           7.62484763282652   -0.12788988786157    3.42330808964499
C           8.90764549908029    0.38192853667147    3.87109476687378
C           9.76017552680381    1.16722317891139    3.15075223910958
C          10.94970753647190    1.71135998213137    3.68053312884315
N          11.92068286534021    2.17201484176600    4.08122325087613
C           9.48059112948125    1.62627556816089    1.84334861384464
N           9.25196561660209    2.12492506810348    0.83539880944504
C           7.19188606356200   -0.56756678294020    2.21565337513611
C           7.98418288316337   -0.82210296090243    1.06222892001806
N           9.30564548582638   -0.74898868682362    1.08337865964217
C           9.72162168175478   -1.18435585089027   -0.12407541632578
C           8.59000157406216   -1.59556461022462   -0.96046862253265
C           9.06614868020718   -2.07417892930641   -2.26499800948223
O           8.42551174714873   -2.55970234560739   -3.17451879547226
C          10.52417264541607   -1.85255037009612   -2.17999143184691
C          10.88245365343142   -1.33174994895578   -0.84229002007427
N          12.21868384570541   -1.12142803500077   -0.75135970510587
C          12.69676977889387   -1.44935362163426   -1.92474571372292
C          11.68995709498428   -1.90720918084307   -2.86937448418239
C           7.45721071438061   -1.33571415237948   -0.22403280360205
C           6.08505930076415   -1.48688629624538   -0.55794306669007
C           5.68361051658167   -2.19336983588485   -1.64325610194749
C           4.33806660140325   -2.37708659207719   -2.04999443394198
N           4.00531617664351   -3.32357301851860   -2.97204085862265
C           2.66439819501949   -3.29429875697486   -3.21218263862610
C           2.11763070736927   -2.27470799395178   -2.42203211541252
C           3.15287095502480   -1.72031662981258   -1.68900681636204
C           2.02909921263733   -4.21718751585262   -4.02600478044135
C           1.47216795372728   -5.07088562426131   -4.69267560114137
C           0.85425002672329   -6.08890175004607   -5.39320388986245
C           1.32177483371992   -7.36715727019190   -5.37950325765310
C           0.65827513455642   -8.41941569184197   -6.05274360716110
N          -0.31482485239796   -8.19952495261979   -6.93223007996963
C          -0.71395509517808   -9.40914094835913   -7.35262767095354
C           0.01927347629538  -10.48875729530492   -6.66805337838961
C          -0.45033078407075  -11.80609626866602   -7.13516385567374
O          -0.12234489837173  -12.90757358822311   -6.74168111509128
C          -1.43470605329233  -11.45089272656499   -8.16509796490883
C          -1.58209868126326   -9.98255638296204   -8.25455217352462
N          -2.49099601281012   -9.65027387862621   -9.19863988853938
C          -2.90006858291668  -10.79431156071001   -9.69884640892168
C          -2.27960912726789  -11.95628435919985   -9.10279236611023
C           0.92153597597203   -9.86494735377684   -5.84192718464840
C           1.87461069127251  -10.41805831923359   -4.94305652219717
C           1.96648380766914  -11.75180514394899   -4.71920882072677
C           2.87694399872573  -12.33619531284270   -3.80589820538542
C           3.08455434693618  -13.67206150898191   -3.65534886529410
C           3.69566534813969  -14.21488085425344   -2.41179085903957
O           4.32830200337493  -13.59863610696535   -1.58474216335954
C           3.29430080672493  -15.63444620415284   -2.38121847645999
C           3.47578674469549  -16.55408727011847   -1.38837265973056
C           2.96325223018706  -17.85954310867180   -1.55544929887415
C           2.26565415142363  -18.18774978099395   -2.75480078532975
C           1.74711184371382  -19.48830789562476   -2.90854713218881
C           1.92446372943932  -20.40433129035822   -1.90938632237274
C           2.60867466140301  -20.10155683544137   -0.72402238803738
C           3.11852485174751  -18.84422300892674   -0.55796701645107
F           1.42891444532316  -21.64672713988756   -2.05388785034496
C           2.10065531164717  -17.21822230817393   -3.77153676286595
C           2.61141315533329  -15.96173188479874   -3.58973414136215
C           2.61638146655068  -14.78621258685352   -4.45688630680912
C           2.42873203647651  -14.78481738320579   -5.81207356744415
C           2.75170384495657  -13.69214428883193   -6.64781939490355
N           3.08532769316622  -12.86308175004233   -7.36717547995261
C           2.02106738890428  -15.92039723340995   -6.54310910680252
N           1.69050613143547  -16.82231393577277   -7.17059628020640
H          11.91909943008480    0.16229567160887    8.10488854725594
H           9.35424084011275   -1.13495552406113   11.25940771170871
H           7.43446061500442   -1.23014292615753    9.68892675579732
H          11.04447307465706    0.44685464791115    5.83496269367927
H           6.52525996638083   -0.96699011425275    7.40835568819001
H           6.15215350454399   -0.87177143783154    2.17280028103161
H          13.75198748701184   -1.37570583697921   -2.12238252129777
H          11.87830930398258   -2.21407361033947   -3.87912792152574
H           5.35338236291587   -1.02883273881424    0.09196730734889
H           6.43508557147959   -2.68062299700357   -2.25213879658651
H           4.66250134510980   -3.94084966801276   -3.42261962694193
H           1.08084644252640   -2.00498146442804   -2.39061098608912
H           3.07287363782121   -0.91625866076482   -0.98519611795246
H          -0.05537569797465   -5.86734411660313   -5.93541751256066
H           2.20452392628639   -7.60588844783445   -4.80319345185127
H          -3.63878102486894  -10.80961579083451  -10.48135718544065
H          -2.47225808198922  -12.97589396568210   -9.37180507330424
H           2.55236898857398   -9.74162930045818   -4.43915377591916
H           1.28136555079390  -12.40896606097962   -5.23602915112885
H           3.38986643247525  -11.68760794282247   -3.10356394903835
H           4.00079015880287  -16.28727454196014   -0.48328911330627
H           1.21739779184677  -19.75758174690665   -3.80889611112951
H           2.71712458499449  -20.86548211288607    0.02947453946424
H           3.64903937527472  -18.58661952490523    0.34640522456618
H           1.56179424094530  -17.48882660248659   -4.66577922902875
