107
 SCF done       -211.230938569611          0.001520079265
C           7.35516866155356    7.28306871982990   -1.85027520702980
C           6.80504972482481    8.44955854629879   -2.30483008497743
F           7.12629051698930    9.60929910247626   -1.70856985771921
C           5.90586633552896    8.48777720099847   -3.38072002957246
C           5.56493570272698    7.31851301210759   -4.00096094634393
C           6.10070331008897    6.08584866030643   -3.57220642942361
C           7.01159220552127    6.06769556671789   -2.47404190379276
C           7.54949048292158    4.84345712859622   -2.01533033533893
C           7.18442510886913    3.67613949520459   -2.63170281729074
C           6.28929297552880    3.70214846111573   -3.74332583606991
C           5.75504473578075    4.87235638301066   -4.20552227902223
C           6.08849825730321    2.33369242272857   -4.24427387222792
O           5.35188966129007    1.94457555323499   -5.11875400075091
C           7.04248817611648    1.49270470997196   -3.45382973933052
C           7.53171558295899    2.29090683586995   -2.33939006658636
C           8.03011308548791    1.81779427045969   -1.16061309209636
C           8.43188927541284    2.64485660670775   -0.08910263787854
N           8.77118223857990    3.27330851153307    0.80821315940096
C           8.09648896588396    0.44562920761167   -0.83684991005673
N           8.09751482913767   -0.65177175229864   -0.50119978647322
C           7.41100793737054    0.27435278886152   -3.89655238496196
C           8.52109089543631   -0.49732994913292   -3.40860096683802
N           9.68164671752780    0.08165858101395   -3.18958865702327
C          10.52771158572273   -0.90983546590454   -2.80320401925071
C           9.84152581182167   -2.19869912120031   -2.77904892579686
C          10.75393842132061   -3.26912171762964   -2.34313689318179
O          10.53243033478865   -4.45107226446838   -2.22305494489445
C          12.01283569666246   -2.52779377278445   -2.09806461715389
C          11.82437801854521   -1.08868055635412   -2.39861027919198
N          12.96950777185688   -0.39767165890029   -2.16576016461004
C          13.82773847380473   -1.29048306118353   -1.74587215339140
C          13.29354272764373   -2.64202270130939   -1.67290997377908
C           8.53941336586097   -1.96049436938794   -3.15315832353414
C           7.48093161472705   -2.90104222950373   -3.18004986129851
C           6.17588997935966   -2.66714269230161   -3.47663892548463
C           5.19532180541498   -3.68600353609149   -3.43141295194792
C           3.91546390633724   -3.50891868690549   -3.85837065677127
C           2.91834075989462   -4.50586174452594   -3.77768633923389
O           1.70475091130285   -4.29102325489682   -4.34236879941885
C           0.91226996737343   -5.36629660481622   -4.08747254476364
C           1.63918247099033   -6.29527856348210   -3.33168229848339
C           2.92165507871708   -5.75564347776216   -3.14575190989703
O           3.94897257973506   -6.31650452906156   -2.48422863007036
O           1.25443294511500   -7.49495262585511   -2.85048082253893
C          -0.39936994390387   -5.47138585081246   -4.57626089766451
C          -0.99954636794441   -4.60745942802245   -5.44692812307949
C          -2.31624784517180   -4.84757974880451   -5.89049090849322
N          -3.09214872784873   -5.76486472862971   -5.30139685743669
C          -4.26967809380669   -5.72743135244136   -5.93674973890149
C          -4.26632920188304   -4.70586139532699   -6.99307066263449
C          -5.52207377104023   -4.72350669159320   -7.76014978353150
O          -5.81493195873654   -4.04468952632216   -8.72379208340450
C          -6.28306680665511   -5.78364655421003   -7.08560158832828
C          -5.49218686254544   -6.36538003770883   -5.97775907594870
N          -6.16937327130536   -7.37349694583120   -5.38663015074794
C          -7.30162214014437   -7.46347359758615   -6.05060558167880
C          -7.43093280772613   -6.51331670090024   -7.12918229676916
C          -3.01493566699126   -4.15305032506842   -6.99341222467617
C          -2.57009415540376   -3.26139878863033   -8.01394523285714
C          -1.32770280144000   -3.11492224582490   -8.51548953899396
C          -1.11122731796297   -2.38593505415046   -9.73097764696068
C          -1.96867735668015   -2.35728697138094  -10.77848497271248
C          -1.87625998416080   -1.28403690885038  -11.81357852921876
O          -0.93295504941118   -0.55589295737931  -12.01512402665259
C          -3.20037117052590   -1.26871617760734  -12.46344217614190
C          -3.70905260286055   -0.37789538663709  -13.36536370982283
C          -5.04002055735901   -0.53469020454271  -13.81260658780928
C          -5.83059661774216   -1.60678486670135  -13.30226300097570
C          -7.16335698723711   -1.74216456442182  -13.73793325852165
C          -7.66761327100224   -0.84987690897056  -14.64221671662225
C          -6.90596272809842    0.20744606376292  -15.15963330120252
C          -5.61177468441077    0.35584853582524  -14.74527700499209
F          -8.93972248026953   -0.97622815412170  -15.06079891352329
C          -5.27805790823018   -2.51951422068471  -12.37544133249102
C          -3.97846766566585   -2.35981617518303  -11.97743513398659
C          -3.15695990823174   -3.15042032288126  -11.07014776994264
C          -3.36074816358853   -4.47079825237775  -10.78342243882754
C          -2.45796920486282   -5.27568330875831  -10.05895905704609
N          -1.74771404868229   -5.99140767690579   -9.50989933706963
C          -4.47143705550346   -5.21201649094234  -11.24219147490570
N          -5.33939759797637   -5.87026303965149  -11.60117146830608
H           8.04156978645944    7.29006686905894   -1.01784344472621
H           5.50379781393607    9.43815345780533   -3.69424686699124
H           4.87508645406142    7.32365812571251   -4.83145571772171
H           8.24361654428231    4.85696060911109   -1.18970549549642
H           5.07460621370576    4.87123568327245   -5.04408006765749
H           6.87470509528011   -0.11830978884543   -4.75420182402663
H          14.83359385694579   -1.00208080325087   -1.49378460452222
H          13.83700069876328   -3.50771885550409   -1.34967618937177
H           7.77814794602510   -3.90794633120488   -2.91289747353938
H           5.84214312462929   -1.67594166513066   -3.75175080573642
H           5.48944698511378   -4.64989872969785   -3.04307297801990
H           3.60637436780183   -2.57143650962100   -4.30094005501790
H           3.66121161304307   -7.17023346990624   -2.13148429971125
H           0.33817532156301   -7.67947820255261   -3.09020118491457
H          -0.97975594008952   -6.33022451045346   -4.26610766144388
H          -0.46500756442940   -3.74667338722823   -5.81708606587075
H          -8.03334485746443   -8.20233276386683   -5.77338012386911
H          -8.26676868515948   -6.43167211811031   -7.79528080082589
H          -3.38588591706697   -2.75758555984214   -8.52155332027776
H          -0.46410581089693   -3.54641072163554   -8.03046457244338
H          -0.21525877711827   -1.78087817124103   -9.81677351224981
H          -3.10636380010345    0.44066605839786  -13.72962067731949
H          -7.77547502276233   -2.54648057836772  -13.36129952054814
H          -7.35795806490608    0.88038842958978  -15.87120340530071
H          -5.00687128885154    1.16359595638771  -15.12908895765279
H          -5.89623691590245   -3.31020349006071  -11.98088605474378
