119
 SCF done       -216.434121803251          0.000965660092
C          14.25912325094463    3.72395800285679    0.56408459739518
C          14.26488177051827    4.03463735497618    1.89593774627521
F          15.34518899818155    4.62531014687253    2.43251432589111
C          13.17709458893178    3.75998023206712    2.73733951582269
C          12.06862180610697    3.15875323942283    2.21045567865686
C          12.00946013255867    2.81534199306588    0.84350297366412
C          13.12651563906518    3.10241874262740    0.00392255633005
C          13.09511210005922    2.75851254953637   -1.36787538585326
C          11.98482301781136    2.14497116439071   -1.88156094243229
C          10.86433549235555    1.87550933549585   -1.04008211851274
C          10.86909284146655    2.19623854646296    0.28867857782611
C           9.79561200833710    1.25234197631490   -1.83238821233174
O           8.71248099658966    0.85788728192659   -1.46743951487759
C          10.29264605077247    1.28059824474773   -3.24605102090026
C          11.69691561537092    1.63921839732688   -3.22162132983630
C          12.62314021708228    1.33105665571400   -4.17702516209536
C          12.34132577252132    0.54614495076940   -5.31789018724718
N          12.21440836092803   -0.19863374289542   -6.18217129778929
C          13.99674128971570    1.63194455457834   -4.05634214721953
N          15.11937698844640    1.85879225964570   -3.99556234923343
C           9.38964296782629    1.12992675179060   -4.24767072222476
C           9.53034283586396    1.48654384418232   -5.61626740923605
N          10.58930933349687    2.14581671855042   -6.06136402101262
C          10.43451810761841    2.24124982425970   -7.39879565289085
C           9.20310079441686    1.57376352644082   -7.83326632520414
C           9.05492978877086    1.65298325828206   -9.29477230741731
O           8.16663414979065    1.21602929355857   -9.98962764829578
C          10.26262287605813    2.41184008230988   -9.69447013238173
C          11.07039522442177    2.75367985785152   -8.50050953327250
N          12.16332249617750    3.47696154803706   -8.85132728344482
C          12.08725692643076    3.60064417780675  -10.15142121266822
C          10.91664602756210    2.96886667193742  -10.74184321861492
C           8.57613957608677    1.13467514004869   -6.69776699892399
C           7.33449965154552    0.43300583332531   -6.59775513110487
C           6.47150313212173    0.53647843670906   -5.56534407391472
C           5.27849929545144   -0.22179949949840   -5.37397827162112
N           4.35713907023655    0.13025249275576   -4.42748292514193
C           4.28803641318618    1.33605292836421   -3.64616189195254
C           3.91633007120115    2.54505482538062   -4.50116994818347
N           3.39671647464519   -0.76772766091512   -4.31795226567808
C           3.67162771248366   -1.74115957982543   -5.17933685095302
C           4.85064874609382   -1.45641440028924   -5.88592648903965
C           5.47332245585858   -2.29623320281537   -6.94787797692333
C           4.99044612058253   -1.87935369766509   -8.34030532364621
C           2.83702025045023   -2.97510265716233   -5.20791169099199
C           3.46153222859251   -4.01695336253315   -4.25931514339573
C           2.61682627225023   -5.22019350662752   -4.09144511048179
C           2.33469528621064   -5.76823521218665   -2.89701846527557
C           1.56613829498731   -6.95943904779221   -2.75475737074186
N           1.00590100479740   -7.57175042434203   -3.78595786198120
C           0.39971110774306   -8.66416536452333   -3.28684296266220
C           0.56667960995432   -8.75157956126578   -1.82389322377030
C          -0.07130723504152   -9.97421930478488   -1.30623507432865
O          -0.14742937162150  -10.35857411926701   -0.15653599283221
C          -0.59342795321807  -10.60739432679910   -2.52492175743239
C          -0.29741859681274   -9.76964564975804   -3.70853840301576
N          -0.76666673918433  -10.35518301032308   -4.83572904272155
C          -1.31119669704780  -11.47985909197004   -4.43711226165772
C          -1.23222928310342  -11.70393732222498   -3.00887180626811
C           1.32550902393712   -7.66486490946601   -1.46815393271533
C           1.84311740204573   -7.28622455047256   -0.19891327950570
C           1.62433865186543   -8.01954907930165    0.91956667825650
C           2.19414504434001   -7.71802141823985    2.18170290814296
C           2.26647305200497   -8.57875555431765    3.23174878496947
C           2.53145155573563   -8.08763697794221    4.61137855597298
O           2.95746927033582   -6.99906320839855    4.92342322548289
C           2.10648419830627   -9.18848052655072    5.49671805689970
C           2.04124192589384   -9.21421706415047    6.86038062868304
C           1.57587121673799  -10.38052388417627    7.50686166805765
C           1.17559827176115  -11.50129892529085    6.72175351253373
C           0.70658368617487  -12.65885385903208    7.37306847831221
C           0.64926398605925  -12.68399071405812    8.73867366796143
C           1.03972695699641  -11.59331533776926    9.52803089691992
C           1.49533176726676  -10.46105680242682    8.91244795799264
F           0.20299168303159  -13.78895836193321    9.36286206945197
C           1.25823773717393  -11.44912563878395    5.31081077081550
C           1.72532589483845  -10.31310078984591    4.70700960706213
C           1.96598646990370   -9.99578984765307    3.30159715794744
C           2.10494222709773  -10.90708379731223    2.29014093305311
C           2.65984605698916  -10.61411147659389    1.02460219811373
N           3.18482095130398  -10.45528513714622    0.01645349703068
C           1.83709585625724  -12.28466983587751    2.43767744080854
N           1.63003650761782  -13.41083388740022    2.50922656187144
H          15.11578089131866    3.94732393971657   -0.05227963745795
H          13.23944218482410    4.02839836036366    3.77993886246240
H          11.21878712870353    2.93666400847938    2.83809385787528
H          13.94918918181281    2.99564317075674   -1.98201073633084
H          10.01235621561508    1.97733380795820    0.90838831285331
H           8.42627568548473    0.74720466735566   -3.93399119118844
H          12.84986567572962    4.13342804438549  -10.69261662806310
H          10.67228689247912    2.96597115763255  -11.78558661606934
H           7.08037968905132   -0.15304143551880   -7.46781532571939
H           6.67185016142409    1.26585166503967   -4.79095267039576
H           5.24270526571067    1.50225340103419   -3.13655858989740
H           3.51794371768975    1.15947488807464   -2.89262224914822
H           2.95413766218129    2.38050306759858   -4.97962544847301
H           4.66085255840201    2.71905506324485   -5.27484259685334
H           3.84810910257501    3.43136312957523   -3.87655249458664
H           5.20645348142041   -3.34205772490323   -6.78242440406017
H           6.56105127368339   -2.21660884450476   -6.89181534027048
H           3.91124626500893   -1.99457610666929   -8.41445524337794
H           5.45887188517518   -2.49843995330080   -9.10137745931636
H           5.23295685480181   -0.83920631590478   -8.54510654375100
H           2.77072649409882   -3.37815272441610   -6.21853238608903
H           1.83559442839985   -2.72557914553992   -4.85685148015749
H           3.65365296946454   -3.54913535833176   -3.29135214061455
H           4.42548958004013   -4.32649588273969   -4.67769649260155
H           2.22070218265962   -5.68832548910280   -4.98218763708326
H           2.72128787215948   -5.31582689918078   -1.99431159640556
H          -1.76698524676863  -12.14420725936887   -5.15078447838956
H          -1.60931464426885  -12.56230662316264   -2.48909288892964
H           2.48677949905620   -6.41807611674291   -0.15083305722173
H           0.98325552974395   -8.88829611170959    0.85430428642065
H           2.55875661211682   -6.71158334968415    2.35873789823911
H           2.34141093539208   -8.35377444012081    7.43967957822161
H           0.40041337761010  -13.51821275237318    6.79728139867750
H           0.97253344954936  -11.67155243519029   10.60155118389229
H           1.80247582355745   -9.60820343486474    9.49892850872852
H           0.94223460500032  -12.30796547790262    4.74013687766743
