111
 SCF done       -220.955050888170          0.000713322058
C          10.17919025710905    4.38537915267965  -11.10402233275586
C          10.92773491120041    3.93027387284079  -12.15395847843538
F          11.67660309634708    4.79570760624629  -12.85669452682212
C          10.94717623203402    2.58047072914958  -12.53429742063717
C          10.19198142749419    1.68369593941090  -11.83190488740837
C           9.40070370423907    2.09810527036544  -10.73999947711954
C           9.39245403814110    3.47626061427110  -10.37043396233131
C           8.59730671233533    3.91859784258989   -9.28847121239657
C           7.83426273377234    3.01259094366834   -8.60168021516493
C           7.86120023827615    1.63210830183204   -8.96296655253984
C           8.61958583756565    1.17940844814577  -10.00603844296002
C           6.98520101436130    0.86906564086046   -8.05943912768572
O           6.68215358323877   -0.29709630606645   -8.10272183231080
C           6.56370486559684    1.85931964575946   -7.01426211733795
C           6.89895064478697    3.18949119712615   -7.49759378334742
C           6.27785534235878    4.35462307493822   -7.15093685681421
C           5.19154871382110    4.42584498653509   -6.25229692172556
N           4.26190401997044    4.52231182060323   -5.58633924661094
C           6.58110243573181    5.60453316790254   -7.73316841802302
N           6.79045795158865    6.63698321235869   -8.18640546480874
C           6.09356849625438    1.44144025806068   -5.81999088888388
C           5.96317951500686    2.25224205656970   -4.64758605988436
N           6.80831251276949    3.22952871919398   -4.38533109500484
C           6.39545889614391    3.77215758870072   -3.21641889437570
C           5.19995247124139    3.09422525260728   -2.70865381416337
C           4.76007478968995    3.70712925081566   -1.44691954270714
O           3.82785329952610    3.39175925556877   -0.73808400891649
C           5.75048802827841    4.78224409857757   -1.24507184457522
C           6.73749567925391    4.77892259972715   -2.34886668166689
N           7.65933546033318    5.75625069445654   -2.16875619650161
C           7.31283394792670    6.35420668504847   -1.05673752462436
C           6.12779014203169    5.79527409175101   -0.42671036592074
C           4.91429141136926    2.09666548040170   -3.61356772791572
C           3.88159785090895    1.12957676370417   -3.64895809137454
C           2.88434014744101    1.08673132212223   -2.72334473197428
C           1.85309137216908    0.12451890266008   -2.65515241517685
S           0.42946922649495    0.49153666909633   -1.75126810356377
C          -0.30080593218801   -1.05117399827526   -2.06942306358490
C           0.52657524538010   -1.81955558826692   -2.92270596753147
C           1.76690409671530   -1.17276627382477   -3.20885387263989
C           2.75582250942697   -1.89762531050796   -3.88147642948992
C           2.50770492206097   -3.16065356273307   -4.36894283022783
C           3.67463912823689   -3.87936335803268   -4.94929528637260
O           4.80823027328978   -3.50543519691898   -4.75702611956635
O           3.37165399100069   -4.94382475247490   -5.67191447737411
C           1.20956918589811   -3.73216385750942   -4.24026383844082
O           0.96957641133779   -4.92466325213674   -4.79387576446225
C           0.24657192611163   -3.06024839036243   -3.50881850948366
C          -1.46184089426510   -1.40279721539964   -1.35684591694714
C          -1.82835559089814   -2.68090293877656   -1.04743224864725
C          -2.88843802578665   -2.98856189199192   -0.16320510972387
N          -3.95708091691236   -2.22254992599793    0.01256980247013
C          -4.76622463165535   -2.89912210438393    0.84281302838352
C          -4.17224009743667   -4.19050181040396    1.23631359665704
C          -5.06655384341611   -4.92075098672311    2.15873693649469
O          -4.88408614997496   -5.99541891067284    2.68336707920836
C          -6.21765662505822   -4.00919885565388    2.26505755702973
C          -5.99486028436835   -2.79186228730555    1.45455206803243
N          -7.04549767362750   -1.94751958993696    1.56225622629065
C          -7.88718061444823   -2.54768075684901    2.37250805966295
C          -7.43208933924114   -3.83434757447485    2.85069466175291
C          -2.95040516041369   -4.24721868041399    0.62966745981050
C          -1.91953624110530   -5.23341904804581    0.75767720385471
C          -0.59436538545670   -4.96311912510311    0.72656801562794
C          -0.05576195978306   -3.64073259803882    0.76031792376759
C           1.11733285606187   -3.15496432998448    0.26908790632989
C           1.53657375540277   -1.78453121897515    0.67051357273529
O           0.88155578757952   -1.00276078965271    1.32314710305010
C           2.87255522315545   -1.58826945844321    0.08666541154531
C           3.68580629731002   -0.49388071476323    0.15833117643360
C           4.88217985955484   -0.47774694115300   -0.59157405034521
C           5.19722755350296   -1.59083251938696   -1.42384341371071
C           6.32530234109278   -1.52110770295327   -2.26475878324838
C           7.11077021059666   -0.40195860398369   -2.23316934814642
C           6.85844982462639    0.67253413703897   -1.36787714402322
C           5.75415599663966    0.62910099336036   -0.56262887397894
F           8.16988947828506   -0.31022254411119   -3.05775083747917
C           4.36838947235993   -2.73675488497410   -1.42780270807657
C           3.22027309518318   -2.73870799501180   -0.68034764330782
C           2.12388355020869   -3.70097280241399   -0.61198012168541
C           2.01928090546402   -4.82836719478724   -1.38913664693305
C           0.81005076244124   -5.48921779133155   -1.67050658284029
N          -0.15380793890355   -5.98023682237219   -2.06045342415910
C           3.07787994527056   -5.38600930602261   -2.13629030440309
N           3.89699248786124   -5.92649335736104   -2.73169966953549
H          10.18573777115164    5.43165646194853  -10.84161028479787
H          11.55721925107065    2.28052938571772  -13.37147872331451
H          10.19100998115250    0.63962058215927  -12.10620427110175
H           8.61660351597099    4.96333631152243   -9.02138780531373
H           8.62180286496401    0.13194816722813  -10.26800967164117
H           5.85066418136541    0.38780302016662   -5.73273708559267
H           7.88999984702847    7.18132956342376   -0.68148206520040
H           5.68573696643845    6.14338331447436    0.48576261817450
H           3.89096640187666    0.43982094290553   -4.47855934511191
H           2.84002611539955    1.87672468806600   -1.98317445233542
H           3.75384849982728   -1.51029927796082   -3.99801001237154
H           4.17894577702795   -5.39991798111915   -5.95913987414300
H           0.09616418171874   -5.26153213910467   -4.54614935326603
H          -0.73260701174467   -3.50149983401180   -3.40415513777254
H          -2.01515973062200   -0.59974015592770   -0.88849801577820
H          -1.25068885803180   -3.52103151890005   -1.39991858929297
H          -8.82189709559170   -2.07873042533356    2.62664612051316
H          -7.96833523875408   -4.47775299858717    3.51974890470528
H          -2.25462967938357   -6.25421312021382    0.88074739039616
H           0.10716516179939   -5.78700045931599    0.73301328617330
H          -0.62586510712495   -2.90797136803259    1.32613017849426
H           3.40493224483321    0.36393155573805    0.75072049372484
H           6.54509271565155   -2.33416158390684   -2.93959883446491
H           7.53694769762981    1.51181345649841   -1.36468190441561
H           5.52547460479426    1.44814083433866    0.10145647376596
H           4.65873414475219   -3.57208458219054   -2.04412657718264
