109
 SCF done       -217.027536479298          0.000276770651
C          15.76177387952214    2.24762756003017   -7.44075231940549
C          16.54586008719860    2.31613335584393   -8.55881280835560
F          17.87819158364377    2.42876088015215   -8.42692370408305
C          16.01246189467246    2.27396252190496   -9.85507895745590
C          14.65924389611691    2.16113293659288  -10.01066940547016
C          13.80279774466093    2.08900509589331   -8.89213340788572
C          14.36519363063282    2.13073929394497   -7.58164280279927
C          13.52819946867701    2.05413006485803   -6.44483497650648
C          12.17400987889621    1.94280088659791   -6.61436478115135
C          11.61519703602665    1.91903647506763   -7.92733258242732
C          12.40278585175027    1.98479137284322   -9.04214327485589
C          10.14712975992322    1.84576656933643   -7.83887401332412
O           9.33836962836415    1.76265331970939   -8.72984700568220
C           9.84995410678317    1.98421646722586   -6.37740175383524
C          11.09383152844192    1.82601299021556   -5.64291448114925
C          11.21298611934565    1.44021672338105   -4.33897098724510
C          12.45114039926525    1.22368902741768   -3.69690524383853
N          13.43580512207674    1.03842578027807   -3.13864429077898
C          10.10878050396295    1.12615885429166   -3.51738677298727
N           9.24608556111030    0.80334733737636   -2.83305628793453
C           8.62325026089001    2.35877645539271   -5.95669061882579
C           8.30801478481765    2.89895527977164   -4.66766019674631
N           9.13833054866928    3.72724945992300   -4.06267161909218
C           8.49092336305891    4.15989170051980   -2.95392293530232
C           7.14628555845730    3.57997215147187   -2.87305327267694
C           6.44191913138459    4.05199857008850   -1.67072214334162
O           5.31272255114963    3.81038237134064   -1.31116170343263
C           7.46306153301102    4.90737788239078   -1.02581448832282
C           8.69284673696021    4.95078808746060   -1.85427814729656
N           9.64182263421261    5.71796748481413   -1.25996726121800
C           9.09975088840225    6.12813729290664   -0.14292813505528
C           7.74300343861306    5.64965220861225    0.07198772306868
C           7.02333288650824    2.73420946285949   -3.94535441770888
C           5.93259054541823    1.87445388865774   -4.24566849563742
C           6.00350513818465    0.82159977790776   -5.09152279854900
C           4.96873531707987   -0.10332795444654   -5.44800845289980
C           3.64673038782504   -0.11725207706140   -4.98341279513152
O           3.34973997294866    0.86003759814205   -4.11507931320991
C           2.10154965781213    1.07826661674280   -3.48715233736575
C           2.70038687095382   -1.11876298026645   -5.43412065436815
O           1.51745567883937   -1.09258208149701   -4.78235249882492
C           0.66982951639655   -2.22446507838540   -4.69688100629727
C           3.02210865994221   -2.04920356790883   -6.41551518256888
C           4.37184271538600   -2.08548690534659   -6.85034407744614
C           5.32266513744924   -1.12452686908849   -6.36999692598950
N           6.46717696441253   -1.37396471675959   -6.97208278090378
O           6.24306036844767   -2.41572351287855   -7.77445362304883
N           4.98776022922799   -2.85227080884310   -7.72462513528905
C           2.08531677668169   -2.92046766144857   -7.08877125472720
N           2.29057353576579   -4.20766405840248   -7.25177588210500
C           1.23566136916258   -4.66429246329308   -7.96341872646014
C           0.31138347495330   -3.56962908208821   -8.30769597409182
C          -0.85139752649310   -4.08811215514156   -9.04768265895533
O          -1.80949285887727   -3.47442252630494   -9.47119699100769
C          -0.56994150314408   -5.52929427067861   -9.12001108685678
C           0.71502525123223   -5.83741559146718   -8.44581131239198
N           0.97249651222756   -7.16612781769326   -8.50079093313858
C          -0.04053596797952   -7.68744055748999   -9.14633580960744
C          -1.04278063772908   -6.72247352800699   -9.55931091476523
C           0.85211963661209   -2.43388061220822   -7.75989748561975
C           0.42185281221825   -1.07871247411486   -7.81226990051671
C          -0.75586515174900   -0.72453125295368   -8.37858743161148
C          -1.27315786427016    0.59614237692338   -8.38325876018633
C          -2.57846206240890    0.90617788315003   -8.59746750161411
C          -3.00045010417569    2.28628858260013   -8.96757658298244
O          -2.35048359497425    3.29812343229380   -8.84568621877009
C          -4.34067167174554    2.12403372029790   -9.56150128548551
C          -5.12297508298951    3.05874348682185  -10.17699996285077
C          -6.37421935826919    2.67110667575864  -10.70521282779421
C          -6.79117338858640    1.31227666001702  -10.58962146762513
C          -8.03645561566126    0.93187007571159  -11.12634591651220
C          -8.81681058419373    1.87054355359084  -11.74239727787648
C          -8.42524052436441    3.21111845438328  -11.86471997206240
C          -7.21932665527190    3.59772072267410  -11.35002998902294
F         -10.00597810617373    1.50965940255643  -12.25475170324458
C          -5.96397529113305    0.36578551603575   -9.94135270552821
C          -4.75948513245563    0.76658483509559   -9.42951042779367
C          -3.73343089307770    0.03484218101707   -8.69364487685019
C          -3.90749518938351   -1.15217319173046   -8.03329756078000
C          -2.99936656104212   -1.66667743067537   -7.08427790731252
N          -2.33382696544334   -2.08495555989375   -6.24695266482435
C          -5.07811638014489   -1.93488090036869   -8.12831325016770
N          -6.00980350675722   -2.60229249474262   -8.17767802918596
H          16.20685881747642    2.28010162028233   -6.45864381474067
H          16.68098866292324    2.33214166631498  -10.69931308406643
H          14.22557921484639    2.12704426775017  -10.99866657755977
H          13.97601863807117    2.09852196352267   -5.46466906095037
H          11.96138469504296    1.96052977869722  -10.02720866576470
H           7.82546864562150    2.34263437576235   -6.69191386288239
H           9.64860411792432    6.77014402778100    0.52416783585518
H           7.13483786062497    5.86911715738249    0.92704128896519
H           5.03137035766998    2.08478660649700   -3.69240428516909
H           6.94782310796185    0.59375711406298   -5.57047967357225
H           2.24793257356446    1.99567328425171   -2.91574472759947
H           1.84299396054244    0.26777627456347   -2.80470652301922
H           1.29662273052957    1.22116818903606   -4.20931752443675
H           0.25959245665171   -2.20761491436156   -3.68565971829485
H           1.21999285181483   -3.15381028161781   -4.85020728883290
H          -0.15638285974766   -2.15417237386776   -5.40774525117731
H          -0.07956053398761   -8.74696144118932   -9.33107321773382
H          -1.94395215838604   -6.94893175488899  -10.09388071740256
H           1.04130768380016   -0.33246680640263   -7.33167750393788
H          -1.35424511342071   -1.49434734803983   -8.84861852325239
H          -0.58727825112380    1.42701177564231   -8.25863226092598
H          -4.79024485962334    4.08250377511583  -10.26104592742028
H          -8.37117521778485   -0.09065521824232  -11.04798416068323
H          -9.08271684059533    3.90662725570478  -12.36170992609543
H          -6.89588299462997    4.62442856029852  -11.43217835300845
H          -6.29758789337442   -0.65775873365461   -9.87553207540824
