102
 SCF done       -201.885587820425          0.000701179013
C          16.28719361157717   -0.83559831973335   -2.94588151461948
C          17.07010174408683   -0.39350844329573   -3.97637753707682
F          18.38016071452677   -0.18291395263024   -3.76836837111792
C          16.55768114697312   -0.14613837328908   -5.25818295866023
C          15.22658842445293   -0.35222045337866   -5.48945918152889
C          14.37254310395403   -0.80492627667631   -4.46194068289283
C          14.91339026160648   -1.05405623436334   -3.16544873776603
C          14.07862539381582   -1.51539180316045   -2.12088997880352
C          12.74676671252811   -1.71682943818464   -2.36458484511503
C          12.20825753862547   -1.44572889450932   -3.65762034690047
C          12.99405863966909   -1.00765886897505   -4.68660453825357
C          10.75809449694248   -1.68534121336831   -3.64537809838599
O           9.97025333595214   -1.61195387337918   -4.55660684339653
C          10.42783966423134   -1.97337943991769   -2.20945500830375
C          11.67346773009391   -2.20290808683247   -1.50127986497283
C          11.83418807863213   -2.93094397816809   -0.35736469206740
C          13.09255069318235   -3.19726926367021    0.22465146269518
N          14.09527443049073   -3.43177698369428    0.72967607170494
C          10.78272462328021   -3.60364224905213    0.30405967983849
N           9.99281451637238   -4.25344742764338    0.82416715532273
C           9.14687357151906   -1.82688436680489   -1.79104026570081
C           8.68258958409769   -1.67557125967690   -0.45513330666346
N           9.49726170246335   -1.41492105536995    0.55340606107096
C           8.70875859126283   -1.26390075767089    1.63804533045077
C           7.28859478628186   -1.42386447090754    1.29163472960483
C           6.44622256575489   -1.30218118555652    2.49783770790041
O           5.24577298428365   -1.39480892270103    2.59206274923843
C           7.44452118649936   -1.05356762917917    3.55959613218708
C           8.81166545851932   -1.03080083490980    2.98450037897636
N           9.73426720110641   -0.80405692803682    3.95238003920378
C           9.04752876400407   -0.69737288352677    5.06054791185991
C           7.60982688116056   -0.84759448538852    4.88778779103391
C           7.25337157327500   -1.68827440567521   -0.05310492611380
C           6.16071333320094   -1.92834019386635   -0.93151032193344
C           4.87101497856719   -1.65523626946488   -0.61966607299223
C           3.81896018020079   -1.87728067028461   -1.55038648671923
O           4.04562297562962   -2.56068979289895   -2.67921141379036
C           2.90273876678370   -2.58844600780313   -3.39938296397785
C           1.90120555074248   -1.92792300489412   -2.70357676404665
C           2.47585699391884   -1.46925424296560   -1.50742865772439
C           1.84493229486646   -0.67846514887792   -0.43346656339796
O           2.50002781401581   -0.05741957512898    0.36896703628409
C           0.33899141420926   -0.69283113464701   -0.43276885504908
C           2.90129230082083   -3.31645587109916   -4.62392573487449
N           3.77819574306449   -4.28889267258353   -4.81357824934832
C           3.49101544998803   -4.81568387451965   -6.01821349883152
C           2.38388817109912   -4.09506523468468   -6.66700704039353
C           2.08775018485015   -4.69245747198139   -7.98311435945199
O           1.27712131992869   -4.33401731580842   -8.81278711655064
C           3.02869497254537   -5.81912247167319   -8.04702257098073
C           3.88043376190211   -5.84849167851705   -6.83631648825998
N           4.75088522744811   -6.88324390815282   -6.89114602761147
C           4.49231753249681   -7.49025695066596   -8.02439432213919
C           3.42648151932061   -6.88024473600949   -8.79469216290344
C           1.99139088598780   -3.12114130283008   -5.77879509263723
C           1.02220649096876   -2.09088203207569   -5.93311427924555
C           0.29039430260932   -1.96562375853169   -7.06689657521570
C          -0.66874167843872   -0.94758395065442   -7.29312616382309
C          -1.51694920079880   -0.91284366427943   -8.35501743370112
C          -2.17658142951456    0.35622837710794   -8.77292493367573
O          -2.31581171490824    1.35429417038750   -8.10481050108218
C          -2.54658709711309    0.14124853340685  -10.18480311020577
C          -3.04961236144227    1.03687123414687  -11.08473969777141
C          -3.28719260619160    0.62019127547529  -12.41322118708553
C          -2.99456843828851   -0.72440207532295  -12.78707853886045
C          -3.22140969339688   -1.12842339548985  -14.11714102964389
C          -3.71698455904998   -0.22671305007396  -15.01734051996847
C          -4.01317519184877    1.09847342959734  -14.66888970258191
C          -3.79904027553487    1.50770393150568  -13.38237977810197
F          -3.93254565195472   -0.60987611197494  -16.28825341156943
C          -2.48443868712514   -1.63438634257192  -11.83206956466619
C          -2.26853426433678   -1.20941014420239  -10.54931974966620
C          -1.77996713804455   -1.91670479975369   -9.36921061963387
C          -1.77937886806232   -3.27229581364500   -9.18678571135217
C          -1.58508940898573   -3.89750471254075   -7.93471861021227
N          -1.51367817228868   -4.43860645497834   -6.92549091372492
C          -2.09818607433326   -4.19623168818542  -10.20453773950902
N          -2.35129444712050   -4.97971574817179  -11.00350258474058
H          16.71702303842540   -1.01852643302187   -1.97355644450384
H          17.22419558521448    0.20122764165815   -6.03155106485223
H          14.80852798752185   -0.16881663242619   -6.46770194244537
H          14.51114534793981   -1.68683581730579   -1.14803512260702
H          12.56619057391731   -0.81473192573148   -5.65898862552874
H           8.41005736879938   -1.72108146512724   -2.58009547882707
H           9.54868165785349   -0.51080020880719    5.99462361185789
H           6.88049886075615   -0.79494705900779    5.67148721596708
H           6.38782531956782   -2.32742506502055   -1.91138470874943
H           4.59163446730538   -1.22170860785413    0.33084361318859
H           0.87856396583501   -1.82663547907062   -3.00322940186350
H          -0.03038262274872   -1.71492619176125   -0.46845889022560
H          -0.03057800720543   -0.16165123278851   -1.30802105817834
H          -0.02823741364382   -0.19791140172153    0.46193568901281
H           5.05452738889619   -8.36113333910409   -8.31370934962134
H           3.06416074552236   -7.22541237052845   -9.74262875569143
H           0.88257624347621   -1.39541923876188   -5.11852128037747
H           0.46537773854458   -2.66660265189191   -7.87059171947465
H          -0.68337744696215   -0.08891741163915   -6.63065871942338
H          -3.25858137578704    2.05383392012162  -10.78804777123131
H          -3.00736447539549   -2.14148486408877  -14.41984153918323
H          -4.40215822108633    1.76479762397404  -15.42238157165253
H          -4.01906352704037    2.52348988425657  -13.09025982249527
H          -2.26276803212341   -2.64361657157131  -12.14120236047700
